
     RDKit          3D

116118  0  0  0  0  0  0  0  0999 V2000
   -2.7530   11.3973   16.3134 C   0  0  0  0  0  0  0  0  0  0  0  0
   -2.9173   12.8013   15.7957 C   0  0  0  0  0  0  0  0  0  0  0  0
   -2.0027   13.5841   15.9577 O   0  0  0  0  0  0  0  0  0  0  0  0
   -4.0892   13.1335   15.2281 N   0  0  0  0  0  0  0  0  0  0  0  0
   -4.4909   14.5165   14.9404 C   0  0  0  0  0  0  0  0  0  0  0  0
   -3.6326   15.2026   13.8886 C   0  0  0  0  0  0  0  0  0  0  0  0
   -4.0436   16.6297   13.5135 C   0  0  0  0  0  0  0  0  0  0  0  0
   -4.3036   17.5309   14.7040 C   0  0  0  0  0  0  0  0  0  0  0  0
   -3.0749   17.7618   15.5792 C   0  0  0  0  0  0  0  0  0  0  0  0
   -3.4970   18.0808   16.9643 N   0  0  0  0  0  0  0  0  0  0  0  0
   -5.9550   14.6001   14.5247 C   0  0  0  0  0  0  0  0  0  0  0  0
   -6.7127   15.2370   15.2099 O   0  0  0  0  0  0  0  0  0  0  0  0
   -6.3464   13.9897   13.3960 N   0  0  0  0  0  0  0  0  0  0  0  0
   -7.7645   13.7030   13.1693 C   0  0  0  0  0  0  0  0  0  0  0  0
   -8.3745   14.6243   12.1143 C   0  0  0  0  0  0  0  0  0  0  0  0
   -8.6635   16.0302   12.6252 C   0  0  0  0  0  0  0  0  0  0  0  0
   -9.1227   16.9658   11.5170 C   0  0  0  0  0  0  0  0  0  0  0  0
   -7.9736   17.7940   10.9574 C   0  0  0  0  0  0  0  0  0  0  0  0
   -8.2997   18.4900    9.6781 N   0  0  0  0  0  0  0  0  0  0  0  0
   -7.8588   12.2487   12.7350 C   0  0  0  0  0  0  0  0  0  0  0  0
   -7.5141   11.9225   11.6099 O   0  0  0  0  0  0  0  0  0  0  0  0
   -8.2554   11.3860   13.6550 N   0  0  0  0  0  0  0  0  0  0  0  0
   -8.3791    9.9577   13.3862 C   0  0  0  0  0  0  0  0  0  0  0  0
   -7.5279    9.1538   14.3635 C   0  0  0  0  0  0  0  0  0  0  0  0
   -6.0419    9.3441   14.1794 C   0  0  0  0  0  0  0  0  0  0  0  0
   -5.3054    8.4966   15.1944 C   0  0  0  0  0  0  0  0  0  0  0  0
   -3.8570    8.6299   15.0823 N   0  0  0  0  0  0  0  0  0  0  0  0
   -2.9762    8.0823   15.9209 C   0  0  0  0  0  0  0  0  0  0  0  0
   -1.6752    8.2673   15.7137 N   0  0  0  0  0  0  0  0  0  0  0  0
   -3.3819    7.3467   16.9579 N   0  0  0  0  0  0  0  0  0  0  0  0
   -9.8337    9.5508   13.5162 C   0  0  0  0  0  0  0  0  0  0  0  0
  -10.5785   10.1095   14.3315 O   0  0  0  0  0  0  0  0  0  0  0  0
  -10.2423    8.5788   12.7057 N   0  0  0  0  0  0  0  0  0  0  0  0
  -11.5647    7.9897   12.8355 C   0  0  0  0  0  0  0  0  0  0  0  0
  -12.5056    8.4541   11.7257 C   0  0  0  0  0  0  0  0  0  0  0  0
  -12.7808    9.9377   11.6934 C   0  0  0  0  0  0  0  0  0  0  0  0
  -11.9692   10.8026   10.9594 C   0  0  0  0  0  0  0  0  0  0  0  0
  -12.2300   12.1703   10.9183 C   0  0  0  0  0  0  0  0  0  0  0  0
  -13.3199   12.6871   11.5909 C   0  0  0  0  0  0  0  0  0  0  0  0
  -13.5562   14.0453   11.5275 O   0  0  0  0  0  0  0  0  0  0  0  0
  -14.1619   11.8453   12.2980 C   0  0  0  0  0  0  0  0  0  0  0  0
  -13.8976   10.4765   12.3282 C   0  0  0  0  0  0  0  0  0  0  0  0
  -11.4195    6.5000   12.7286 C   0  0  0  0  0  0  0  0  0  0  0  0
  -10.7036    5.9851   11.8414 O   0  0  0  0  0  0  0  0  0  0  0  0
  -12.1180    5.7974   13.6094 N   0  0  0  0  0  0  0  0  0  0  0  0
  -12.2497    4.3668   13.4637 C   0  0  0  0  0  0  0  0  0  0  0  0
  -12.8147    3.7533   14.7270 C   0  0  0  0  0  0  0  0  0  0  0  0
  -14.1455    4.1825   14.9258 O   0  0  0  0  0  0  0  0  0  0  0  0
  -13.1540    4.0175   12.2968 C   0  0  0  0  0  0  0  0  0  0  0  0
  -13.9486    4.8207   11.8053 O   0  0  0  0  0  0  0  0  0  0  0  0
  -13.0293    2.7790   11.8745 N   0  0  0  0  0  0  0  0  0  0  0  0
  -13.9044    2.2192   10.8813 C   0  0  0  0  0  0  0  0  0  0  0  0
  -13.4997    0.7641   10.6879 C   0  0  0  0  0  0  0  0  0  0  0  0
  -14.2991   -0.0004    9.7171 C   0  0  0  0  0  0  0  0  0  0  0  0
  -13.8925   -1.4585    9.8147 C   0  0  0  0  0  0  0  0  0  0  0  0
  -14.6940   -2.1751    8.8654 N   0  0  0  0  0  0  0  0  0  0  0  0
  -15.8984   -2.6729    9.1108 C   0  0  0  0  0  0  0  0  0  0  0  0
  -16.5426   -3.2810    8.1290 N   0  0  0  0  0  0  0  0  0  0  0  0
  -16.4601   -2.5640   10.3173 N   0  0  0  0  0  0  0  0  0  0  0  0
  -15.3814    2.3900   11.3183 C   0  0  0  0  0  0  0  0  0  0  0  0
  -16.2037    2.8629   10.5165 O   0  0  0  0  0  0  0  0  0  0  0  0
  -15.7407    2.0635   12.6016 N   0  0  0  0  0  0  0  0  0  0  0  0
  -17.1092    2.2849   12.8954 C   0  0  0  0  0  0  0  0  0  0  0  0
  -16.9799    1.9535   14.4181 C   0  0  0  0  0  0  0  0  0  0  0  0
  -18.0796    1.1909   12.4898 C   0  0  0  0  0  0  0  0  0  0  0  0
  -19.4479    1.1348   13.1647 C   0  0  0  0  0  0  0  0  0  0  0  0
  -20.4643    0.3978   12.2847 C   0  0  0  0  0  0  0  0  0  0  0  0
  -21.7582    0.2887   13.0437 C   0  0  0  0  0  0  0  0  0  0  0  0
  -22.8916    0.9876   12.8353 C   0  0  0  0  0  0  0  0  0  0  0  0
  -23.0808    2.0272   11.7491 C   0  0  0  0  0  0  0  0  0  0  0  0
  -22.4684    3.3564   12.1830 C   0  0  0  0  0  0  0  0  0  0  0  0
  -23.0140    4.5371   11.3787 C   0  0  0  0  0  0  0  0  0  0  0  0
  -21.9730    5.4330   10.6971 C   0  0  0  0  0  0  0  0  0  0  0  0
  -21.4610    6.1453   11.9813 C   0  0  0  0  0  0  0  0  0  0  0  0
  -22.5132    6.6525   10.0057 C   0  0  0  0  0  0  0  0  0  0  0  0
  -23.7211    6.8997   10.1678 O   0  0  0  0  0  0  0  0  0  0  0  0
  -21.7739    7.2974    9.1841 N   0  0  0  0  0  0  0  0  0  0  0  0
  -22.2502    8.4658    8.4219 C   0  0  0  0  0  0  0  0  0  0  0  0
  -21.0167    9.2442    7.9745 C   0  0  0  0  0  0  0  0  0  0  0  0
  -20.4688   10.1190    9.0390 C   0  0  0  0  0  0  0  0  0  0  0  0
  -20.8859   11.4393    9.1591 C   0  0  0  0  0  0  0  0  0  0  0  0
  -20.3790   12.2406   10.1658 C   0  0  0  0  0  0  0  0  0  0  0  0
  -19.4560   11.7216   11.0702 C   0  0  0  0  0  0  0  0  0  0  0  0
  -19.0369   10.4089   10.9536 C   0  0  0  0  0  0  0  0  0  0  0  0
  -19.5503    9.6216    9.9447 C   0  0  0  0  0  0  0  0  0  0  0  0
  -23.1127    8.1196    7.2144 C   0  0  0  0  0  0  0  0  0  0  0  0
  -24.5198    8.2064    7.3879 N   0  0  0  0  0  0  0  0  0  0  0  0
  -22.6015    7.8092    6.1423 O   0  0  0  0  0  0  0  0  0  0  0  0
  -20.6402    5.0020   10.3435 N   0  0  0  0  0  0  0  0  0  0  0  0
  -20.6149    4.4953    9.0827 C   0  0  0  0  0  0  0  0  0  0  0  0
  -21.6152    4.4146    8.3652 O   0  0  0  0  0  0  0  0  0  0  0  0
  -19.3029    3.9502    8.5266 C   0  0  0  0  0  0  0  0  0  0  0  0
  -19.2791    2.4315    8.6961 C   0  0  0  0  0  0  0  0  0  0  0  0
  -18.2034    1.6699    7.9299 C   0  0  0  0  0  0  0  0  0  0  0  0
  -18.1073    0.2135    8.3664 C   0  0  0  0  0  0  0  0  0  0  0  0
  -18.4298    1.7494    6.4346 C   0  0  0  0  0  0  0  0  0  0  0  0
  -18.1449    4.5811    9.1183 N   0  0  0  0  0  0  0  0  0  0  0  0
  -17.8638    5.8482    8.8372 C   0  0  0  0  0  0  0  0  0  0  0  0
  -18.6047    6.5511    8.1368 O   0  0  0  0  0  0  0  0  0  0  0  0
  -16.5735    6.4112    9.4315 C   0  0  0  0  0  0  0  0  0  0  0  0
  -15.3801    6.0202    8.5808 C   0  0  0  0  0  0  0  0  0  0  0  0
  -14.0930    6.7745    8.9481 C   0  0  0  0  0  0  0  0  0  0  0  0
  -12.8810    6.0673    8.3595 C   0  0  0  0  0  0  0  0  0  0  0  0
  -14.1292    8.2323    8.5286 C   0  0  0  0  0  0  0  0  0  0  0  0
  -16.3827    6.0364   10.8471 N   0  0  0  0  0  0  0  0  0  0  0  0
  -17.2549    6.4934   11.7487 C   0  0  0  0  0  0  0  0  0  0  0  0
  -18.1635    7.2649   11.4664 O   0  0  0  0  0  0  0  0  0  0  0  0
  -17.0728    6.0419   13.1978 C   0  0  0  0  0  0  0  0  0  0  0  0
  -15.9946    6.9258   13.8425 C   0  0  0  0  0  0  0  0  0  0  0  0
  -15.9280    6.8249   15.3486 C   0  0  0  0  0  0  0  0  0  0  0  0
  -14.7316    7.5422   15.9627 C   0  0  0  0  0  0  0  0  0  0  0  0
  -14.9670    8.1832   17.0991 N   0  0  0  0  0  0  0  0  0  0  0  0
  -13.6133    7.4974   15.4552 O   0  0  0  0  0  0  0  0  0  0  0  0
  -16.6749    4.6438   13.2815 N   0  0  0  0  0  0  0  0  0  0  0  0
  -17.5012    3.7115   12.9251 C   0  0  0  0  0  0  0  0  0  0  0  0
  -18.6134    3.9961   12.4085 O   0  0  0  0  0  0  0  0  0  0  0  0
  2  3  2  0
  2  1  1  0
  4  2  1  0
  5  4  1  0
 11  5  1  0
  5  6  1  0
 11 12  2  0
 13 11  1  0
  6  7  1  0
  7  8  1  0
  8  9  1  0
  9 10  1  0
 14 13  1  0
 20 14  1  0
 14 15  1  0
 20 21  2  0
 22 20  1  0
 15 16  1  0
 16 17  1  0
 17 18  1  0
 18 19  1  0
 23 22  1  0
 31 23  1  0
 23 24  1  0
 31 32  2  0
 33 31  1  0
 24 25  1  0
 25 26  1  0
 26 27  1  0
 27 28  1  0
 28 30  1  0
 28 29  2  0
 34 33  1  0
 43 34  1  0
 34 35  1  0
 43 44  2  0
 45 43  1  0
 35 36  1  0
 36 37  2  0
 36 42  1  0
 37 38  1  0
 42 41  2  0
 38 39  2  0
 41 39  1  0
 39 40  1  0
 46 45  1  0
 49 46  1  0
 46 47  1  0
 49 50  2  0
 51 49  1  0
 47 48  1  0
 52 51  1  0
 60 52  1  0
 52 53  1  0
 60 61  2  0
 62 60  1  0
 53 54  1  0
 54 55  1  0
 55 56  1  0
 56 57  1  0
 57 58  2  0
 57 59  1  0
115116  2  0
115 63  1  0
114115  1  0
 63 64  1  0
 63 62  1  0
 63 65  1  0
 65 66  1  0
 66 67  1  0
 67 68  1  0
 68 69  2  0
108114  1  0
106108  1  0
108109  1  0
106107  2  0
105106  1  0
109110  1  0
110111  1  0
111113  2  0
111112  1  0
100105  1  0
 98100  1  0
100101  1  0
 98 99  2  0
 97 98  1  0
101102  1  0
102103  1  0
102104  1  0
 92 97  1  0
 90 92  1  0
 92 93  1  0
 90 91  2  0
 89 90  1  0
 93 94  1  0
 94 95  1  0
 94 96  1  0
 75 76  2  0
 73 75  1  0
 75 77  1  0
 73 74  1  0
 73 89  1  0
 73 72  1  0
 72 71  1  0
 71 70  1  0
 70 69  1  0
 77 78  1  0
 78 86  1  0
 78 79  1  0
 86 88  2  0
 86 87  1  0
 79 80  1  0
 80 81  2  0
 80 85  1  0
 81 82  1  0
 85 84  2  0
 82 83  2  0
 84 83  1  0
M  CHG  2  10   1  19   1
M  END
$$$$
