
     RDKit          3D

130134  0  0  0  0  0  0  0  0999 V2000
   -3.5401   12.6598   15.1368 C   0  0  0  0  0  0  0  0  0  0  0  0
   -3.3875   13.9493   14.3481 C   0  0  0  0  0  0  0  0  0  0  0  0
   -2.4459   14.0649   13.5805 O   0  0  0  0  0  0  0  0  0  0  0  0
   -4.2461   14.9724   14.4861 N   0  0  0  0  0  0  0  0  0  0  0  0
   -5.3582   15.0243   15.4244 C   0  0  1  0  0  0  0  0  0  0  0  0
   -5.6447   16.4756   15.8983 C   0  0  0  0  0  0  0  0  0  0  0  0
   -6.4322   17.4126   14.9773 C   0  0  0  0  0  0  0  0  0  0  0  0
   -5.5902   17.9691   13.8378 C   0  0  0  0  0  0  0  0  0  0  0  0
   -6.2305   19.1763   13.1741 C   0  0  0  0  0  0  0  0  0  0  0  0
   -5.4092   19.6290   12.0182 N   0  0  0  0  0  4  0  0  0  0  0  0
   -6.6224   14.3071   14.9284 C   0  0  0  0  0  0  0  0  0  0  0  0
   -7.2572   13.6061   15.7135 O   0  0  0  0  0  0  0  0  0  0  0  0
   -6.9721   14.4345   13.6426 N   0  0  0  0  0  0  0  0  0  0  0  0
   -8.2001   13.8041   13.1308 C   0  0  1  0  0  0  0  0  0  0  0  0
   -8.7706   14.5670   11.9253 C   0  0  0  0  0  0  0  0  0  0  0  0
   -9.1811   16.0069   12.2104 C   0  0  0  0  0  0  0  0  0  0  0  0
  -10.3886   16.0967   13.1373 C   0  0  0  0  0  0  0  0  0  0  0  0
  -10.5030   17.4690   13.7819 C   0  0  0  0  0  0  0  0  0  0  0  0
  -11.4408   17.4394   14.9400 N   0  0  0  0  0  4  0  0  0  0  0  0
   -8.0007   12.3304   12.7806 C   0  0  0  0  0  0  0  0  0  0  0  0
   -7.4715   11.9990   11.7172 O   0  0  0  0  0  0  0  0  0  0  0  0
   -8.4230   11.4581   13.6945 N   0  0  0  0  0  0  0  0  0  0  0  0
   -8.4472   10.0185   13.4707 C   0  0  1  0  0  0  0  0  0  0  0  0
   -7.5064    9.2932   14.4322 C   0  0  0  0  0  0  0  0  0  0  0  0
   -6.0385    9.6885   14.3102 C   0  0  0  0  0  0  0  0  0  0  0  0
   -5.2488    9.3046   15.5604 C   0  0  0  0  0  0  0  0  0  0  0  0
   -5.0907    7.8537   15.7061 N   0  0  0  0  0  0  0  0  0  0  0  0
   -4.7590    7.2096   16.8324 C   0  0  0  0  0  0  0  0  0  0  0  0
   -4.6424    5.8781   16.8163 N   0  0  0  0  0  0  0  0  0  0  0  0
   -4.5578    7.8649   17.9792 N   0  0  0  0  0  4  0  0  0  0  0  0
   -9.8781    9.5239   13.6504 C   0  0  0  0  0  0  0  0  0  0  0  0
  -10.5680    9.9324   14.5875 O   0  0  0  0  0  0  0  0  0  0  0  0
  -10.3183    8.6584   12.7428 N   0  0  0  0  0  0  0  0  0  0  0  0
  -11.6322    8.0367   12.8173 C   0  0  1  0  0  0  0  0  0  0  0  0
  -12.5141    8.4758   11.6352 C   0  0  0  0  0  0  0  0  0  0  0  0
  -12.7742    9.9615   11.5966 C   0  0  0  0  0  0  0  0  0  0  0  0
  -13.8338   10.5232   12.3157 C   0  0  0  0  0  0  0  0  0  0  0  0
  -14.0789   11.8883   12.2844 C   0  0  0  0  0  0  0  0  0  0  0  0
  -13.2581   12.7166   11.5423 C   0  0  0  0  0  0  0  0  0  0  0  0
  -13.4978   14.0778   11.5104 O   0  0  0  0  0  0  0  0  0  0  0  0
  -12.1919   12.1844   10.8312 C   0  0  0  0  0  0  0  0  0  0  0  0
  -11.9595   10.8165   10.8576 C   0  0  0  0  0  0  0  0  0  0  0  0
  -11.4951    6.5265   12.8042 C   0  0  0  0  0  0  0  0  0  0  0  0
  -10.7500    5.9668   11.9793 O   0  0  0  0  0  0  0  0  0  0  0  0
  -12.2257    5.8628   13.6991 N   0  0  0  0  0  0  0  0  0  0  0  0
  -12.3555    4.4086   13.6489 C   0  0  1  0  0  0  0  0  0  0  0  0
  -13.0351    3.8702   14.9098 C   0  0  0  0  0  0  0  0  0  0  0  0
  -14.3909    4.2924   14.9707 O   0  0  0  0  0  0  0  0  0  0  0  0
  -13.1787    4.0069   12.4313 C   0  0  0  0  0  0  0  0  0  0  0  0
  -13.9361    4.8160   11.8828 O   0  0  0  0  0  0  0  0  0  0  0  0
  -13.0305    2.7495   12.0361 N   0  0  0  0  0  0  0  0  0  0  0  0
  -13.8690    2.1203   11.0153 C   0  0  1  0  0  0  0  0  0  0  0  0
  -13.5599    0.6276   10.9557 C   0  0  0  0  0  0  0  0  0  0  0  0
  -14.3086   -0.1211    9.8829 C   0  0  0  0  0  0  0  0  0  0  0  0
  -13.9110   -1.5786    9.8791 C   0  0  0  0  0  0  0  0  0  0  0  0
  -14.7315   -2.3216    8.9366 N   0  0  0  0  0  0  0  0  0  0  0  0
  -15.9554   -2.7906    9.1772 C   0  0  0  0  0  0  0  0  0  0  0  0
  -16.5592   -2.6112   10.3507 N   0  0  0  0  0  0  0  0  0  0  0  0
  -16.5927   -3.4487    8.2172 N   0  0  0  0  0  4  0  0  0  0  0  0
  -15.3674    2.3133   11.2782 C   0  0  0  0  0  0  0  0  0  0  0  0
  -16.1113    2.6848   10.3695 O   0  0  0  0  0  0  0  0  0  0  0  0
  -15.7643    2.0225   12.5283 N   0  0  0  0  0  0  0  0  0  0  0  0
  -17.1345    2.1341   13.0396 C   0  0  1  0  0  0  0  0  0  0  0  0
  -17.9785    1.0466   12.3522 C   0  0  0  0  0  0  0  0  0  0  0  0
  -17.1628    1.8946   14.5579 C   0  0  0  0  0  0  0  0  0  0  0  0
  -18.5365    2.0678   15.2367 C   0  0  0  0  0  0  0  0  0  0  0  0
  -18.9202    3.4837   15.6751 C   0  0  0  0  0  0  0  0  0  0  0  0
  -20.3313    3.4623   16.2365 C   0  0  0  0  0  0  0  0  0  0  0  0
  -21.3505    4.2239   15.8303 C   0  0  0  0  0  0  0  0  0  0  0  0
  -21.2755    5.2726   14.7390 C   0  0  0  0  0  0  0  0  0  0  0  0
  -21.6942    4.7241   13.3745 C   0  0  0  0  0  0  0  0  0  0  0  0
  -21.7113    5.8551   12.3291 C   0  0  0  0  0  0  0  0  0  0  0  0
  -21.9995    5.4150   10.8840 C   0  0  1  0  0  0  0  0  0  0  0  0
  -23.2348    4.5076   10.8713 C   0  0  0  0  0  0  0  0  0  0  0  0
  -22.2898    6.6948   10.1043 C   0  0  0  0  0  0  0  0  0  0  0  0
  -23.4561    7.0082    9.8561 O   0  0  0  0  0  0  0  0  0  0  0  0
  -21.2911    7.4097    9.7507 N   0  0  0  0  0  0  0  0  0  0  0  0
  -21.4349    8.6786    9.0110 C   0  0  1  0  0  0  0  0  0  0  0  0
  -20.0941    9.4396    9.0205 C   0  0  0  0  0  0  0  0  0  0  0  0
  -19.7058   10.0384   10.3619 C   0  0  0  0  0  0  0  0  0  0  0  0
  -20.6561   10.5902   11.2360 C   0  0  0  0  0  0  0  0  0  0  0  0
  -20.2689   11.1520   12.4509 C   0  0  0  0  0  0  0  0  0  0  0  0
  -18.9286   11.1859   12.8006 C   0  0  0  0  0  0  0  0  0  0  0  0
  -17.9748   10.6697   11.9362 C   0  0  0  0  0  0  0  0  0  0  0  0
  -18.3629   10.1074   10.7269 C   0  0  0  0  0  0  0  0  0  0  0  0
  -21.9294    8.5462    7.5627 C   0  0  0  0  0  0  0  0  0  0  0  0
  -22.3341    9.5471    6.9712 O   0  0  0  0  0  0  0  0  0  0  0  0
  -21.8825    7.3375    7.0076 N   0  0  0  0  0  0  0  0  0  0  0  0
  -22.4543    7.0017    5.6971 C   0  0  1  0  0  0  0  0  0  0  0  0
  -22.1026    5.5439    5.3499 C   0  0  0  0  0  0  0  0  0  0  0  0
  -22.1965    5.1185    3.9042 C   0  0  0  0  0  0  0  0  0  0  0  0
  -22.6767    5.8389    2.8547 C   0  0  0  0  0  0  0  0  0  0  0  0
  -22.6071    5.1015    1.6983 N   0  0  0  0  0  0  0  0  0  0  0  0
  -22.0733    3.8722    1.9835 C   0  0  0  0  0  0  0  0  0  0  0  0
  -21.8054    2.7810    1.1427 C   0  0  0  0  0  0  0  0  0  0  0  0
  -21.2579    1.6561    1.7143 C   0  0  0  0  0  0  0  0  0  0  0  0
  -20.9834    1.5923    3.0987 C   0  0  0  0  0  0  0  0  0  0  0  0
  -21.2584    2.6755    3.9344 C   0  0  0  0  0  0  0  0  0  0  0  0
  -21.8115    3.8417    3.3712 C   0  0  0  0  0  0  0  0  0  0  0  0
  -23.9715    7.1749    5.7458 C   0  0  0  0  0  0  0  0  0  0  0  0
  -24.6203    6.8782    6.9832 N   0  0  0  0  0  0  0  0  0  0  0  0
  -24.5905    7.5775    4.7688 O   0  0  0  0  0  0  0  0  0  0  0  0
  -20.8522    4.7287   10.2699 N   0  0  0  0  0  0  0  0  0  0  0  0
  -20.8117    4.3201    8.9890 C   0  0  0  0  0  0  0  0  0  0  0  0
  -21.7470    4.4815    8.2048 O   0  0  0  0  0  0  0  0  0  0  0  0
  -19.5128    3.6775    8.4832 C   0  0  2  0  0  0  0  0  0  0  0  0
  -19.4746    2.1728    8.7718 C   0  0  0  0  0  0  0  0  0  0  0  0
  -18.3669    1.3973    8.0491 C   0  0  0  0  0  0  0  0  0  0  0  0
  -18.3585   -0.0565    8.5048 C   0  0  0  0  0  0  0  0  0  0  0  0
  -18.5094    1.4658    6.5302 C   0  0  0  0  0  0  0  0  0  0  0  0
  -18.3186    4.3442    9.0049 N   0  0  0  0  0  0  0  0  0  0  0  0
  -18.0199    5.5980    8.6685 C   0  0  0  0  0  0  0  0  0  0  0  0
  -18.7338    6.2749    7.9258 O   0  0  0  0  0  0  0  0  0  0  0  0
  -16.7573    6.1984    9.2758 C   0  0  2  0  0  0  0  0  0  0  0  0
  -15.4986    5.7712    8.4962 C   0  0  0  0  0  0  0  0  0  0  0  0
  -14.2251    6.5406    8.8702 C   0  0  0  0  0  0  0  0  0  0  0  0
  -13.0082    5.8830    8.2331 C   0  0  0  0  0  0  0  0  0  0  0  0
  -14.3182    8.0031    8.4539 C   0  0  0  0  0  0  0  0  0  0  0  0
  -16.6254    5.8735   10.7057 N   0  0  0  0  0  0  0  0  0  0  0  0
  -17.5389    6.2917   11.5798 C   0  0  0  0  0  0  0  0  0  0  0  0
  -18.5228    6.9560   11.2575 O   0  0  0  0  0  0  0  0  0  0  0  0
  -17.3037    5.9163   13.0406 C   0  0  2  0  0  0  0  0  0  0  0  0
  -16.1446    6.7581   13.5687 C   0  0  0  0  0  0  0  0  0  0  0  0
  -16.1278    6.9981   15.0635 C   0  0  0  0  0  0  0  0  0  0  0  0
  -15.0148    7.9585   15.4577 C   0  0  0  0  0  0  0  0  0  0  0  0
  -15.3913    9.1555   15.8868 N   0  0  0  0  0  0  0  0  0  0  0  0
  -13.8265    7.6284   15.3607 O   0  0  0  0  0  0  0  0  0  0  0  0
  -16.9562    4.5028   13.1993 N   0  0  0  0  0  0  0  0  0  0  0  0
  -17.6561    3.5335   12.7632 C   0  0  0  0  0  0  0  0  0  0  0  0
  -18.7114    3.6813   12.1683 O   0  0  0  0  0  0  0  0  0  0  0  0
  2  3  2  0
  2  1  1  0
  4  2  1  0
  5  4  1  0
 11  5  1  0
  5  6  1  6
 11 12  2  0
 13 11  1  0
  6  7  1  0
  7  8  1  0
  8  9  1  0
  9 10  1  0
 14 13  1  0
 20 14  1  0
 14 15  1  6
 20 21  2  0
 22 20  1  0
 15 16  1  0
 16 17  1  0
 17 18  1  0
 18 19  1  0
 23 22  1  0
 31 23  1  0
 23 24  1  1
 31 32  2  0
 33 31  1  0
 24 25  1  0
 25 26  1  0
 26 27  1  0
 27 28  1  0
 28 30  2  0
 28 29  1  0
 34 33  1  0
 43 34  1  0
 34 35  1  6
 43 44  2  0
 45 43  1  0
 35 36  1  0
 36 37  2  0
 36 42  1  0
 37 38  1  0
 42 41  2  0
 38 39  2  0
 41 39  1  0
 39 40  1  0
 46 45  1  0
 49 46  1  0
 46 47  1  1
 49 50  2  0
 51 49  1  0
 47 48  1  0
 52 51  1  0
 60 52  1  0
 52 53  1  1
 60 61  2  0
 62 60  1  0
 53 54  1  0
 54 55  1  0
 55 56  1  0
 56 57  1  0
 57 59  2  0
 57 58  1  0
129130  2  0
129 63  1  0
128129  1  0
 63 62  1  0
 63 65  1  0
 63 64  1  6
 65 66  1  0
 67 68  1  0
 66 67  1  0
 68 69  2  0
122128  1  0
120122  1  0
122123  1  6
120121  2  0
119120  1  0
123124  1  0
124125  1  0
125127  2  0
125126  1  0
114119  1  0
112114  1  0
114115  1  6
112113  2  0
111112  1  0
115116  1  0
116117  1  0
116118  1  0
106111  1  0
104106  1  0
106107  1  1
104105  2  0
103104  1  0
107108  1  0
108109  1  0
108110  1  0
 75 76  2  0
 73 75  1  0
 75 77  1  0
103 73  1  0
 73 72  1  0
 73 74  1  1
 72 71  1  0
 69 70  1  0
 70 71  1  0
 77 78  1  0
 78 86  1  0
 78 79  1  6
 86 87  2  0
 86 88  1  0
 79 80  1  0
 80 81  2  0
 80 85  1  0
 81 82  1  0
 85 84  2  0
 82 83  2  0
 84 83  1  0
 88 89  1  0
 89100  1  0
 89 90  1  1
100102  2  0
100101  1  0
 90 91  1  0
 91 92  2  0
 91 99  1  0
 92 93  1  0
 99 94  2  0
 99 98  1  0
 93 94  1  0
 94 95  1  0
 98 97  2  0
 95 96  2  0
 97 96  1  0
M  CHG  4  10   1  19   1  30   1  59   1
M  END
$$$$
