
     RDKit          3D

 30 33  0  0  0  0  0  0  0  0999 V2000
   -9.2100    7.8691    2.6277 O   0  0  0  0  0  0  0  0  0  0  0  0
  -10.4213    6.9862    2.8082 P   0  0  0  0  0  0  0  0  0  0  0  0
  -11.6619    7.8458    2.8642 O   0  0  0  0  0  0  0  0  0  0  0  0
  -10.2924    6.2186    4.1032 O   0  0  0  0  0  0  0  0  0  0  0  0
  -10.5556    5.7866    1.3879 C   0  0  0  0  0  0  0  0  0  0  0  0
   -9.4963    4.8734    1.4769 O   0  0  0  0  0  0  0  0  0  0  0  0
  -10.4526    6.5755    0.0759 C   0  0  0  0  0  0  0  0  0  0  0  0
  -10.7015    5.7715   -1.2074 C   0  0  0  0  0  0  0  0  0  0  0  0
  -10.0459    4.5767   -1.4681 C   0  0  0  0  0  0  0  0  0  0  0  0
  -10.2982    3.8863   -2.6465 C   0  0  0  0  0  0  0  0  0  0  0  0
  -11.1990    4.3851   -3.5781 C   0  0  0  0  0  0  0  0  0  0  0  0
  -11.8502    5.5814   -3.3241 C   0  0  0  0  0  0  0  0  0  0  0  0
  -12.7579    6.1468   -4.2119 C   0  0  0  0  0  0  0  0  0  0  0  0
  -13.8456    6.7944   -3.6463 C   0  0  0  0  0  0  0  0  0  0  0  0
  -14.7962    7.4122   -4.4457 C   0  0  0  0  0  0  0  0  0  0  0  0
  -14.6478    7.3894   -5.8218 C   0  0  0  0  0  0  0  0  0  0  0  0
  -13.5498    6.7459   -6.4069 C   0  0  0  0  0  0  0  0  0  0  0  0
  -12.6066    6.1329   -5.6153 C   0  0  0  0  0  0  0  0  0  0  0  0
  -11.6479    5.5882   -6.4607 O   0  0  0  0  0  0  0  0  0  0  0  0
  -12.0070    5.8712   -7.7736 C   0  0  0  0  0  0  0  0  0  0  0  0
  -11.4080    5.5651   -9.0068 C   0  0  0  0  0  0  0  0  0  0  0  0
  -11.9998    5.9807  -10.1915 C   0  0  0  0  0  0  0  0  0  0  0  0
  -13.1860    6.7034  -10.1608 C   0  0  0  0  0  0  0  0  0  0  0  0
  -13.7781    7.0039   -8.9432 C   0  0  0  0  0  0  0  0  0  0  0  0
  -13.1791    6.5827   -7.7449 C   0  0  0  0  0  0  0  0  0  0  0  0
  -11.5928    6.2649   -2.1451 C   0  0  0  0  0  0  0  0  0  0  0  0
  -12.1798    4.8888    1.5673 P   0  0  0  0  0  0  0  0  0  0  0  0
  -13.3188    5.8763    1.4840 O   0  0  0  0  0  0  0  0  0  0  0  0
  -12.3400    3.8395    0.4936 O   0  0  0  0  0  0  0  0  0  0  0  0
  -12.2107    4.2130    2.9188 O   0  0  0  0  0  0  0  0  0  0  0  0
 25 24  2  0
 25 20  1  0
 25 17  1  0
 24 23  1  0
 23 22  2  0
 22 21  1  0
 21 20  2  0
 20 19  1  0
 19 18  1  0
 18 17  1  0
 18 13  2  0
 17 16  2  0
 16 15  1  0
 15 14  2  0
 14 13  1  0
 13 12  1  0
 12 26  1  0
 12 11  2  0
 26  8  2  0
 11 10  1  0
 10  9  2  0
  9  8  1  0
  8  7  1  0
  7  5  1  0
  5  2  1  0
  5 27  1  0
  5  6  1  0
  2  3  1  0
  2  1  2  0
  2  4  1  0
 27 28  2  0
 27 29  1  0
 27 30  1  0
M  END
$$$$
