
     RDKit          3D

132134  0  0  0  0  0  0  0  0999 V2000
   -5.3416   18.4692   16.9182 C   0  0  0  0  0  0  0  0  0  0  0  0
   -5.8450   17.4653   15.8995 C   0  0  0  0  0  0  0  0  0  0  0  0
   -6.9951   17.5049   15.4959 O   0  0  0  0  0  0  0  0  0  0  0  0
   -4.9335   16.5746   15.4850 N   0  0  0  0  0  0  0  0  0  0  0  0
   -5.1183   15.5578   14.4419 C   0  0  0  0  0  0  0  0  0  0  0  0
   -3.9814   14.5290   14.5077 C   0  0  0  0  0  0  0  0  0  0  0  0
   -2.6881   15.0104   13.8752 C   0  0  0  0  0  0  0  0  0  0  0  0
   -1.5050   14.1377   14.2744 C   0  0  0  0  0  0  0  0  0  0  0  0
   -0.5224   13.9530   13.1237 C   0  0  0  0  0  0  0  0  0  0  0  0
   -0.0460   15.2387   12.5466 N   0  0  0  0  0  0  0  0  0  0  0  0
   -6.4676   14.8213   14.4457 C   0  0  0  0  0  0  0  0  0  0  0  0
   -7.0085   14.5146   15.5039 O   0  0  0  0  0  0  0  0  0  0  0  0
   -6.9778   14.5154   13.2487 N   0  0  0  0  0  0  0  0  0  0  0  0
   -8.2780   13.8710   13.0832 C   0  0  0  0  0  0  0  0  0  0  0  0
   -9.0863   14.5809   11.9924 C   0  0  0  0  0  0  0  0  0  0  0  0
   -9.5317   16.0013   12.3314 C   0  0  0  0  0  0  0  0  0  0  0  0
  -10.2302   16.1456   13.6935 C   0  0  0  0  0  0  0  0  0  0  0  0
  -11.3654   15.1505   13.9401 C   0  0  0  0  0  0  0  0  0  0  0  0
  -11.8617   15.1984   15.3467 N   0  0  0  0  0  0  0  0  0  0  0  0
   -8.1231   12.4003   12.7215 C   0  0  0  0  0  0  0  0  0  0  0  0
   -7.6289   12.0741   11.6459 O   0  0  0  0  0  0  0  0  0  0  0  0
   -8.5263   11.5299   13.6389 N   0  0  0  0  0  0  0  0  0  0  0  0
   -8.5711   10.0960   13.4048 C   0  0  0  0  0  0  0  0  0  0  0  0
   -7.6688    9.3404   14.3929 C   0  0  0  0  0  0  0  0  0  0  0  0
   -6.1807    9.6476   14.2261 C   0  0  0  0  0  0  0  0  0  0  0  0
   -5.3640    9.3845   15.4927 C   0  0  0  0  0  0  0  0  0  0  0  0
   -5.2497    7.9529   15.7834 N   0  0  0  0  0  0  0  0  0  0  0  0
   -4.8806    7.4156   16.9522 C   0  0  0  0  0  0  0  0  0  0  0  0
   -4.5806    8.1789   18.0063 N   0  0  0  0  0  0  0  0  0  0  0  0
   -4.8276    6.0837   17.0684 N   0  0  0  0  0  0  0  0  0  0  0  0
  -10.0141    9.6363   13.5441 C   0  0  0  0  0  0  0  0  0  0  0  0
  -10.7215   10.0136   14.4898 O   0  0  0  0  0  0  0  0  0  0  0  0
  -10.4531    8.8226   12.5992 N   0  0  0  0  0  0  0  0  0  0  0  0
  -11.7549    8.2052   12.6736 C   0  0  0  0  0  0  0  0  0  0  0  0
  -12.6200    8.6458   11.4997 C   0  0  0  0  0  0  0  0  0  0  0  0
  -12.9025   10.1143   11.4960 C   0  0  0  0  0  0  0  0  0  0  0  0
  -13.9422   10.6492   12.2592 C   0  0  0  0  0  0  0  0  0  0  0  0
  -14.1866   12.0034   12.2620 C   0  0  0  0  0  0  0  0  0  0  0  0
  -13.4310   12.8238   11.4855 C   0  0  0  0  0  0  0  0  0  0  0  0
  -13.6710   14.1398   11.4456 O   0  0  0  0  0  0  0  0  0  0  0  0
  -12.3980   12.3277   10.7083 C   0  0  0  0  0  0  0  0  0  0  0  0
  -12.1407   10.9845   10.7285 C   0  0  0  0  0  0  0  0  0  0  0  0
  -11.5962    6.7247   12.6531 C   0  0  0  0  0  0  0  0  0  0  0  0
  -10.8462    6.1749   11.8452 O   0  0  0  0  0  0  0  0  0  0  0  0
  -12.3370    6.0675   13.5318 N   0  0  0  0  0  0  0  0  0  0  0  0
  -12.4371    4.6464   13.4959 C   0  0  0  0  0  0  0  0  0  0  0  0
  -13.1079    4.1008   14.7726 C   0  0  0  0  0  0  0  0  0  0  0  0
  -14.4501    4.5553   14.8619 O   0  0  0  0  0  0  0  0  0  0  0  0
  -13.2587    4.2762   12.3114 C   0  0  0  0  0  0  0  0  0  0  0  0
  -14.0574    5.0850   11.7934 O   0  0  0  0  0  0  0  0  0  0  0  0
  -13.0898    3.0393   11.9151 N   0  0  0  0  0  0  0  0  0  0  0  0
  -13.9054    2.4567   10.9051 C   0  0  0  0  0  0  0  0  0  0  0  0
  -13.6057    0.9828   10.8545 C   0  0  0  0  0  0  0  0  0  0  0  0
  -14.4083    0.2575    9.8379 C   0  0  0  0  0  0  0  0  0  0  0  0
  -14.1541   -1.2166    9.8859 C   0  0  0  0  0  0  0  0  0  0  0  0
  -14.9612   -1.8213    8.8517 N   0  0  0  0  0  0  0  0  0  0  0  0
  -16.2245   -2.2094    8.9988 C   0  0  0  0  0  0  0  0  0  0  0  0
  -16.8537   -2.7479    7.9553 N   0  0  0  0  0  0  0  0  0  0  0  0
  -16.8727   -2.0601   10.1631 N   0  0  0  0  0  0  0  0  0  0  0  0
  -15.3995    2.6648   11.2146 C   0  0  0  0  0  0  0  0  0  0  0  0
  -16.1585    3.1141   10.3613 O   0  0  0  0  0  0  0  0  0  0  0  0
  -15.7880    2.3349   12.4615 N   0  0  0  0  0  0  0  0  0  0  0  0
  -17.1726    2.4627   12.9300 C   0  0  0  0  0  0  0  0  0  0  0  0
  -17.9845    1.4185   12.1618 C   0  0  0  0  0  0  0  0  0  0  0  0
  -17.2204    2.1357   14.4360 C   0  0  0  0  0  0  0  0  0  0  0  0
  -18.6069    2.2434   15.0966 C   0  0  0  0  0  0  0  0  0  0  0  0
  -18.9115    3.6251   15.6502 C   0  0  0  0  0  0  0  0  0  0  0  0
  -20.3399    3.6376   16.1681 C   0  0  0  0  0  0  0  0  0  0  0  0
  -21.3058    4.4885   15.7875 C   0  0  0  0  0  0  0  0  0  0  0  0
  -21.2053    5.6006   14.7718 C   0  0  0  0  0  0  0  0  0  0  0  0
  -21.7433    5.1304   13.4339 C   0  0  0  0  0  0  0  0  0  0  0  0
  -21.6639    6.2721   12.4339 C   0  0  0  0  0  0  0  0  0  0  0  0
  -21.9701    5.8984   10.9912 C   0  0  0  0  0  0  0  0  0  0  0  0
  -23.2255    5.0246   10.9313 C   0  0  0  0  0  0  0  0  0  0  0  0
  -22.2044    7.2376   10.2762 C   0  0  0  0  0  0  0  0  0  0  0  0
  -23.3676    7.6058   10.0985 O   0  0  0  0  0  0  0  0  0  0  0  0
  -21.1902    7.9328    9.8777 N   0  0  0  0  0  0  0  0  0  0  0  0
  -21.3393    9.2199    9.1884 C   0  0  0  0  0  0  0  0  0  0  0  0
  -20.0057    9.9809    9.2122 C   0  0  0  0  0  0  0  0  0  0  0  0
  -19.6751   10.6268   10.5301 C   0  0  0  0  0  0  0  0  0  0  0  0
  -20.6598   11.1622   11.3596 C   0  0  0  0  0  0  0  0  0  0  0  0
  -20.3310   11.7454   12.5595 C   0  0  0  0  0  0  0  0  0  0  0  0
  -19.0028   11.8427   12.9422 C   0  0  0  0  0  0  0  0  0  0  0  0
  -18.0138   11.3488   12.1187 C   0  0  0  0  0  0  0  0  0  0  0  0
  -18.3484   10.7587   10.9153 C   0  0  0  0  0  0  0  0  0  0  0  0
  -21.8200    9.1343    7.7377 C   0  0  0  0  0  0  0  0  0  0  0  0
  -22.0460   10.1728    7.1027 O   0  0  0  0  0  0  0  0  0  0  0  0
  -21.9648    7.9272    7.2127 N   0  0  0  0  0  0  0  0  0  0  0  0
  -22.5996    7.7240    5.9181 C   0  0  0  0  0  0  0  0  0  0  0  0
  -22.3282    6.2916    5.4505 C   0  0  0  0  0  0  0  0  0  0  0  0
  -22.5669    6.0497    3.9769 C   0  0  0  0  0  0  0  0  0  0  0  0
  -22.2032    4.6247    3.5936 C   0  0  0  0  0  0  0  0  0  0  0  0
  -22.2723    4.4358    2.1511 N   0  0  0  0  0  0  0  0  0  0  0  0
  -22.0254    3.2929    1.5154 C   0  0  0  0  0  0  0  0  0  0  0  0
  -22.0728    3.2600    0.1930 N   0  0  0  0  0  0  0  0  0  0  0  0
  -21.6971    2.1849    2.1872 N   0  0  0  0  0  0  0  0  0  0  0  0
  -24.1154    7.9955    5.9713 C   0  0  0  0  0  0  0  0  0  0  0  0
  -24.6886    8.5271    5.0274 O   0  0  0  0  0  0  0  0  0  0  0  0
  -24.7498    7.6298    7.0864 N   0  0  0  0  0  0  0  0  0  0  0  0
  -26.2154    7.6306    7.2199 C   0  0  0  0  0  0  0  0  0  0  0  0
  -26.5929    7.1618    8.6292 C   0  0  0  0  0  0  0  0  0  0  0  0
  -26.8520    8.9911    6.9437 C   0  0  0  0  0  0  0  0  0  0  0  0
  -27.8651    9.0749    6.2516 O   0  0  0  0  0  0  0  0  0  0  0  0
  -26.3572   10.0159    7.4109 O   0  0  0  0  0  0  0  0  0  0  0  0
  -20.8856    5.1378   10.3744 N   0  0  0  0  0  0  0  0  0  0  0  0
  -20.8580    4.8120    9.0635 C   0  0  0  0  0  0  0  0  0  0  0  0
  -21.7420    5.1683    8.2736 O   0  0  0  0  0  0  0  0  0  0  0  0
  -19.6349    4.0567    8.5200 C   0  0  0  0  0  0  0  0  0  0  0  0
  -19.6852    2.5505    8.7812 C   0  0  0  0  0  0  0  0  0  0  0  0
  -18.6432    1.6651    8.0773 C   0  0  0  0  0  0  0  0  0  0  0  0
  -18.8969    0.2001    8.4085 C   0  0  0  0  0  0  0  0  0  0  0  0
  -18.6283    1.8396    6.5627 C   0  0  0  0  0  0  0  0  0  0  0  0
  -18.4053    4.6552    9.0047 N   0  0  0  0  0  0  0  0  0  0  0  0
  -18.0835    5.8969    8.6657 C   0  0  0  0  0  0  0  0  0  0  0  0
  -18.7814    6.5956    7.9152 O   0  0  0  0  0  0  0  0  0  0  0  0
  -16.8015    6.4623    9.2343 C   0  0  0  0  0  0  0  0  0  0  0  0
  -15.5667    6.0203    8.4210 C   0  0  0  0  0  0  0  0  0  0  0  0
  -14.2817    6.7671    8.8223 C   0  0  0  0  0  0  0  0  0  0  0  0
  -13.0560    6.1274    8.1789 C   0  0  0  0  0  0  0  0  0  0  0  0
  -14.3123    8.2591    8.4765 C   0  0  0  0  0  0  0  0  0  0  0  0
  -16.6673    6.1430   10.6567 N   0  0  0  0  0  0  0  0  0  0  0  0
  -17.5490    6.6390   11.5311 C   0  0  0  0  0  0  0  0  0  0  0  0
  -18.4878    7.3848   11.2023 O   0  0  0  0  0  0  0  0  0  0  0  0
  -17.3279    6.2670   12.9868 C   0  0  0  0  0  0  0  0  0  0  0  0
  -16.2378    7.2166   13.5158 C   0  0  0  0  0  0  0  0  0  0  0  0
  -15.8941    7.1425   14.9828 C   0  0  0  0  0  0  0  0  0  0  0  0
  -14.8781    8.2069   15.3790 C   0  0  0  0  0  0  0  0  0  0  0  0
  -15.3736    9.4007   15.6840 N   0  0  0  0  0  0  0  0  0  0  0  0
  -13.6518    7.9548   15.4171 O   0  0  0  0  0  0  0  0  0  0  0  0
  -16.9548    4.8572   13.1141 N   0  0  0  0  0  0  0  0  0  0  0  0
  -17.6899    3.8641   12.7082 C   0  0  0  0  0  0  0  0  0  0  0  0
  -18.7826    3.9600   12.1289 O   0  0  0  0  0  0  0  0  0  0  0  0
  2  3  2  0
  2  1  1  0
  4  2  1  0
  5  4  1  0
 11  5  1  0
  5  6  1  0
 11 12  2  0
 13 11  1  0
  6  7  1  0
  7  8  1  0
  8  9  1  0
  9 10  1  0
 14 13  1  0
 20 14  1  0
 14 15  1  0
 20 21  2  0
 22 20  1  0
 15 16  1  0
 16 17  1  0
 17 18  1  0
 18 19  1  0
 23 22  1  0
 31 23  1  0
 23 24  1  0
 31 32  2  0
 33 31  1  0
 24 25  1  0
 25 26  1  0
 26 27  1  0
 27 28  1  0
 28 29  2  0
 28 30  1  0
 34 33  1  0
 43 34  1  0
 34 35  1  0
 43 44  2  0
 45 43  1  0
 35 36  1  0
 36 37  2  0
 36 42  1  0
 37 38  1  0
 42 41  2  0
 38 39  2  0
 41 39  1  0
 39 40  1  0
 46 45  1  0
 49 46  1  0
 46 47  1  0
 49 50  2  0
 51 49  1  0
 47 48  1  0
 52 51  1  0
 60 52  1  0
 52 53  1  0
 60 61  2  0
 62 60  1  0
 53 54  1  0
 54 55  1  0
 55 56  1  0
 56 57  1  0
 57 59  1  0
 57 58  2  0
131132  2  0
131 63  1  0
130131  1  0
 63 62  1  0
 63 65  1  0
 63 64  1  0
 65 66  1  0
 67 68  1  0
 66 67  1  0
 68 69  2  0
124130  1  0
122124  1  0
124125  1  0
122123  2  0
121122  1  0
125126  1  0
126127  1  0
127129  2  0
127128  1  0
116121  1  0
114116  1  0
116117  1  0
114115  2  0
113114  1  0
117118  1  0
118119  1  0
118120  1  0
108113  1  0
106108  1  0
108109  1  0
106107  2  0
105106  1  0
109110  1  0
110111  1  0
110112  1  0
 75 76  2  0
 73 75  1  0
 75 77  1  0
105 73  1  0
 73 72  1  0
 73 74  1  0
 72 71  1  0
 69 70  1  0
 70 71  1  0
 77 78  1  0
 78 86  1  0
 78 79  1  0
 86 87  2  0
 86 88  1  0
 79 80  1  0
 80 81  2  0
 80 85  1  0
 81 82  1  0
 85 84  2  0
 82 83  2  0
 84 83  1  0
 88 89  1  0
 89 97  1  0
 89 90  1  0
 97 98  2  0
 97 99  1  0
 90 91  1  0
 91 92  1  0
 92 93  1  0
 93 94  1  0
 94 96  1  0
 94 95  2  0
 99100  1  0
100102  1  0
100101  1  0
102104  1  0
102103  2  0
M  CHG  2  10   1  19   1
M  END
$$$$
