
     RDKit          3D

 34 37  0  0  0  0  0  0  0  0999 V2000
  -24.5473    2.1109    2.1804 C   0  0  0  0  0  0  0  0  0  0  0  0
  -24.4852    1.0346    3.3113 C   0  0  0  0  0  0  0  0  0  0  0  0
  -25.8080    1.1046    4.1226 C   0  0  0  0  0  0  0  0  0  0  0  0
  -23.3932    1.2091    4.0685 N   0  0  0  0  0  0  0  0  0  0  0  0
  -22.2237    1.0488    3.3324 C   0  0  0  0  0  0  0  0  0  0  0  0
  -20.9101    0.8659    4.0886 C   0  0  0  0  0  0  0  0  0  0  0  0
  -20.9890    0.0859    5.3030 N   0  0  0  0  0  0  0  0  0  0  0  0
  -19.7190   -0.2369    6.0366 C   0  0  0  0  0  0  0  0  0  0  0  0
  -18.5278   -0.3162    5.3055 C   0  0  0  0  0  0  0  0  0  0  0  0
  -17.3248   -0.6222    5.9556 C   0  0  0  0  0  0  0  0  0  0  0  0
  -17.3429   -0.8517    7.3279 C   0  0  0  0  0  0  0  0  0  0  0  0
  -15.9981   -1.1325    7.9932 C   0  0  0  0  0  0  0  0  0  0  0  0
  -15.7940   -2.1844    8.8187 C   0  0  0  0  0  0  0  0  0  0  0  0
  -14.3375   -2.3341    9.4021 C   0  0  0  0  0  0  0  0  0  0  0  0
  -14.0116   -3.5621   10.2605 C   0  0  0  0  0  0  0  0  0  0  0  0
  -12.4916   -3.8039   10.1100 C   0  0  0  0  0  0  0  0  0  0  0  0
  -11.9471   -4.0200   11.3912 O   0  0  0  0  0  0  0  0  0  0  0  0
  -16.9100   -3.2390    9.1548 C   0  0  0  0  0  0  0  0  0  0  0  0
  -17.6374   -3.1954   10.4048 C   0  0  0  0  0  0  0  0  0  0  0  0
  -18.6759   -4.1509   10.7435 C   0  0  0  0  0  0  0  0  0  0  0  0
  -18.8703   -5.0881    9.7475 C   0  0  0  0  0  0  0  0  0  0  0  0
  -18.2781   -5.2941    8.5102 C   0  0  0  0  0  0  0  0  0  0  0  0
  -17.2520   -4.3046    8.2351 C   0  0  0  0  0  0  0  0  0  0  0  0
  -14.8691   -0.0536    7.6354 C   0  0  0  0  0  0  0  0  0  0  0  0
  -13.6394   -0.4352    7.0870 C   0  0  0  0  0  0  0  0  0  0  0  0
  -12.6404    0.5026    6.7598 C   0  0  0  0  0  0  0  0  0  0  0  0
  -12.8774    1.8431    6.9718 C   0  0  0  0  0  0  0  0  0  0  0  0
  -14.0982    2.2483    7.5056 C   0  0  0  0  0  0  0  0  0  0  0  0
  -14.2822    3.6232    7.6893 O   0  0  0  0  0  0  0  0  0  0  0  0
  -15.0997    1.3181    7.8328 C   0  0  0  0  0  0  0  0  0  0  0  0
  -18.5417   -0.7695    8.0622 C   0  0  0  0  0  0  0  0  0  0  0  0
  -19.7449   -0.4540    7.4209 C   0  0  0  0  0  0  0  0  0  0  0  0
  -22.1241    0.5444    6.0669 C   0  0  0  0  0  0  0  0  0  0  0  0
  -23.4381    0.5480    5.2844 C   0  0  0  0  0  0  0  0  0  0  0  0
 10 11  1  0
  9 10  2  0
 31 11  2  0
 11 12  1  0
 32 31  1  0
 24 30  1  0
 24 25  2  0
 12 24  1  0
 30 28  2  0
 25 26  1  0
 13 14  1  0
 13 18  1  0
 12 13  2  0
 14 15  1  0
 15 16  1  0
 16 17  1  0
 18 19  2  0
 18 23  1  0
 19 20  1  0
 20 21  2  0
 22 21  1  0
 23 22  2  0
  2  1  1  0
  2  3  1  0
  4  2  1  0
  6  5  1  0
  5  4  1  0
  7  6  1  0
 33 34  1  0
  7 33  1  0
 34  4  1  0
  8  9  1  0
  8 32  2  0
  8  7  1  0
 28 27  1  0
 28 29  1  0
 27 26  2  0
M  CHG  1   4   1
M  END
$$$$
