
     RDKit          3D

 25 27  0  0  0  0  0  0  0  0999 V2000
    9.5726  -22.5506  -56.4095 C   0  0  0  0  0  0  0  0  0  0  0  0
   10.2323  -22.9098  -57.7143 C   0  0  0  0  0  0  0  0  0  0  0  0
   10.1868  -24.1376  -58.1352 C   0  0  0  0  0  0  0  0  0  0  0  0
   10.8387  -24.4409  -59.4307 C   0  0  0  0  0  0  0  0  0  0  0  0
    9.9056  -25.0427  -60.3924 N   0  0  0  0  0  0  0  0  0  0  0  0
    8.9468  -24.2763  -61.0031 C   0  0  0  0  0  0  0  0  0  0  0  0
    8.1039  -24.8087  -61.9397 C   0  0  0  0  0  0  0  0  0  0  0  0
    7.0453  -23.9706  -62.5888 C   0  0  0  0  0  0  0  0  0  0  0  0
    6.6955  -24.1117  -63.9453 C   0  0  0  0  0  0  0  0  0  0  0  0
    5.6887  -23.3226  -64.5038 C   0  0  0  0  0  0  0  0  0  0  0  0
    5.0071  -22.4088  -63.6955 C   0  0  0  0  0  0  0  0  0  0  0  0
    5.3523  -22.2503  -62.3430 C   0  0  0  0  0  0  0  0  0  0  0  0
    4.6459  -21.2974  -61.4452 C   0  0  0  0  0  0  0  0  0  0  0  0
    3.9392  -21.7233  -60.5368 O   0  0  0  0  0  0  0  0  0  0  0  0
    4.7346  -19.9720  -61.5714 N   0  0  0  0  0  0  0  0  0  0  0  0
    3.9994  -19.1489  -60.5887 C   0  0  0  0  0  0  0  0  0  0  0  0
    5.5761  -19.3706  -62.6091 C   0  0  0  0  0  0  0  0  0  0  0  0
    6.3619  -23.0452  -61.7908 C   0  0  0  0  0  0  0  0  0  0  0  0
    8.2439  -26.2415  -62.2795 C   0  0  0  0  0  0  0  0  0  0  0  0
    7.5868  -27.1470  -63.1596 C   0  0  0  0  0  0  0  0  0  0  0  0
    8.1716  -28.3707  -63.0439 C   0  0  0  0  0  0  0  0  0  0  0  0
    9.1739  -28.2840  -62.1224 N   0  0  0  0  0  0  0  0  0  0  0  0
    9.2366  -26.9939  -61.6262 C   0  0  0  0  0  0  0  0  0  0  0  0
   10.0631  -26.3501  -60.6857 C   0  0  0  0  0  0  0  0  0  0  0  0
   10.9225  -26.9972  -60.1165 O   0  0  0  0  0  0  0  0  0  0  0  0
  4  3  1  0
  5  4  1  0
 24 23  1  0
  5 24  1  0
 24 25  2  0
  6  7  2  0
  6  5  1  0
  7 19  1  0
  7  8  1  0
 19 20  1  0
 19 23  2  0
 20 21  2  0
 21 22  1  0
 23 22  1  0
  3  2  2  3
  2  1  1  0
  8  9  2  0
  8 18  1  0
  9 10  1  0
 10 11  2  0
 11 12  1  0
 12 18  2  0
 12 13  1  0
 13 14  2  0
 13 15  1  0
 15 16  1  0
 15 17  1  0
M  END
$$$$
