
     RDKit          3D

 27 29  0  0  0  0  0  0  0  0999 V2000
   19.4631    8.8227  -31.2224 N   0  0  0  0  0  0  0  0  0  0  0  0
   18.9101    8.9900  -32.4322 C   0  0  0  0  0  0  0  0  0  0  0  0
   19.2347    8.2166  -33.4870 N   0  0  0  0  0  0  0  0  0  0  0  0
   18.6552    8.3642  -34.6974 C   0  0  0  0  0  0  0  0  0  0  0  0
   17.7243    9.3095  -34.9535 N   0  0  0  0  0  0  0  0  0  0  0  0
   17.3342   10.1545  -33.9615 C   0  0  0  0  0  0  0  0  0  0  0  0
   17.9161   10.0474  -32.6226 C   0  0  0  0  0  0  0  0  0  0  0  0
   17.3501   11.0012  -31.8421 N   0  0  0  0  0  0  0  0  0  0  0  0
   16.4626   11.6663  -32.6249 C   0  0  0  0  0  0  0  0  0  0  0  0
   16.4613   11.1465  -33.8810 N   0  0  0  0  0  0  0  0  0  0  0  0
   15.6619   11.6331  -35.0315 C   0  0  0  0  0  0  0  0  0  0  0  0
   15.0395   12.8588  -34.6366 O   0  0  0  0  0  0  0  0  0  0  0  0
   13.6148   12.7360  -34.7696 C   0  0  0  0  0  0  0  0  0  0  0  0
   12.9373   13.6143  -33.7243 C   0  0  0  0  0  0  0  0  0  0  0  0
   12.9876   12.9670  -32.4594 O   0  0  0  0  0  0  0  0  0  0  0  0
   11.9021   13.3898  -31.3529 P   0  0  0  0  0  0  0  0  0  0  0  0
   12.2160   12.7148  -30.0462 O   0  0  0  0  0  0  0  0  0  0  0  0
   11.8286   14.8987  -31.3731 O   0  0  0  0  0  0  0  0  0  0  0  0
   10.5269   12.8262  -31.9945 O   0  0  0  0  0  0  0  0  0  0  0  0
   10.1027   11.2705  -32.1640 P   0  0  0  0  0  0  0  0  0  0  0  0
   10.2273   11.0789  -33.6521 O   0  0  0  0  0  0  0  0  0  0  0  0
    8.6797   11.2357  -31.6152 O   0  0  0  0  0  0  0  0  0  0  0  0
   11.0788   10.4107  -31.3781 O   0  0  0  0  0  0  0  0  0  0  0  0
   13.3505   11.2337  -34.6761 C   0  0  0  0  0  0  0  0  0  0  0  0
   12.1140   10.7912  -35.2624 O   0  0  0  0  0  0  0  0  0  0  0  0
   14.5544   10.6647  -35.4068 C   0  0  0  0  0  0  0  0  0  0  0  0
   14.3531   10.6950  -36.8372 O   0  0  0  0  0  0  0  0  0  0  0  0
 20 21  2  0
 20 22  1  0
 20 23  1  0
 19 20  1  0
 16 17  2  0
 16 18  1  0
 16 19  1  0
 16 15  1  0
 15 14  1  0
 14 13  1  0
 13 12  1  0
 13 24  1  0
 12 11  1  0
 24 25  1  0
 24 26  1  0
 26 27  1  0
 26 11  1  0
 11 10  1  0
 10  9  1  0
 10  6  1  0
  9  8  2  0
  8  7  1  0
  7  2  2  0
  7  6  1  0
  2  1  1  0
  2  3  1  0
  3  4  2  0
  4  5  1  0
  5  6  2  0
M  END
$$$$
