
     RDKit          3D

 34 37  0  0  0  0  0  0  0  0999 V2000
   15.8737    7.8960  -40.7451 C   0  0  0  0  0  0  0  0  0  0  0  0
   15.4061    7.4063  -39.3734 C   0  0  0  0  0  0  0  0  0  0  0  0
   16.3165    7.8888  -38.3596 N   0  0  0  0  0  0  0  0  0  0  0  0
   15.8550    7.9417  -36.9965 C   0  0  0  0  0  0  0  0  0  0  0  0
   14.7414    7.6004  -36.7507 O   0  0  0  0  0  0  0  0  0  0  0  0
   16.8038    8.4568  -35.9182 C   0  0  0  0  0  0  0  0  0  0  0  0
   18.1527    8.2641  -35.8743 N   0  0  0  0  0  0  0  0  0  0  0  0
   18.6595    8.9004  -34.7073 O   0  0  0  0  0  0  0  0  0  0  0  0
   17.6025    9.4478  -34.0797 C   0  0  0  0  0  0  0  0  0  0  0  0
   17.6542   10.1659  -32.8887 C   0  0  0  0  0  0  0  0  0  0  0  0
   17.1317   11.4610  -32.8343 C   0  0  0  0  0  0  0  0  0  0  0  0
   17.2009   12.1654  -31.6446 C   0  0  0  0  0  0  0  0  0  0  0  0
   16.6584   13.5840  -31.5277 C   0  0  0  0  0  0  0  0  0  0  0  0
   17.3170   14.4800  -32.6174 C   0  0  0  0  0  0  0  0  0  0  0  0
   15.1547   13.6484  -31.7421 C   0  0  0  0  0  0  0  0  0  0  0  0
   17.7748   11.5598  -30.5361 C   0  0  0  0  0  0  0  0  0  0  0  0
   17.7930   12.2300  -29.3381 O   0  0  0  0  0  0  0  0  0  0  0  0
   18.2955   10.2852  -30.5855 C   0  0  0  0  0  0  0  0  0  0  0  0
   18.2475    9.5839  -31.7753 C   0  0  0  0  0  0  0  0  0  0  0  0
   18.7631    8.2810  -31.8911 O   0  0  0  0  0  0  0  0  0  0  0  0
   16.4338    9.1808  -34.8102 C   0  0  0  0  0  0  0  0  0  0  0  0
   15.1176    9.5277  -34.4552 C   0  0  0  0  0  0  0  0  0  0  0  0
   14.6201    9.1026  -33.2324 C   0  0  0  0  0  0  0  0  0  0  0  0
   13.3189    9.4328  -32.8551 C   0  0  0  0  0  0  0  0  0  0  0  0
   12.5113   10.1843  -33.6933 C   0  0  0  0  0  0  0  0  0  0  0  0
   11.0649   10.5511  -33.2636 C   0  0  0  0  0  0  0  0  0  0  0  0
   10.8720   11.9987  -33.1522 N   0  0  0  0  0  0  0  0  0  0  0  0
   11.9148   12.5675  -32.3610 C   0  0  0  0  0  0  0  0  0  0  0  0
   11.4749   13.6451  -31.3719 C   0  0  0  0  0  0  0  0  0  0  0  0
   10.3870   14.4569  -31.7885 O   0  0  0  0  0  0  0  0  0  0  0  0
    9.3200   13.7676  -32.4248 C   0  0  0  0  0  0  0  0  0  0  0  0
    9.5528   12.2585  -32.6337 C   0  0  0  0  0  0  0  0  0  0  0  0
   13.0095   10.5950  -34.9186 C   0  0  0  0  0  0  0  0  0  0  0  0
   14.2944   10.2659  -35.3118 C   0  0  0  0  0  0  0  0  0  0  0  0
 28 29  1  0
 28 27  1  0
 29 30  1  0
 30 31  1  0
 31 32  1  0
 32 27  1  0
 27 26  1  0
 26 25  1  0
 25 24  1  0
 25 33  2  0
 24 23  2  0
 23 22  1  0
 33 34  1  0
 34 22  2  0
 22 21  1  0
 21  6  1  0
 21  9  2  0
  6  4  1  0
  6  7  2  0
  4  5  2  0
  4  3  1  0
  3  2  1  0
  2  1  1  0
  7  8  1  0
  8  9  1  0
  9 10  1  0
 10 11  2  0
 10 19  1  0
 11 12  1  0
 12 13  1  0
 12 16  2  0
 13 14  1  0
 13 15  1  0
 16 17  1  0
 16 18  1  0
 18 19  2  0
 19 20  1  0
M  CHG  1  27   1
M  END
$$$$
