
     RDKit          3D

 23 25  0  0  0  0  0  0  0  0999 V2000
   20.3936    7.6649  -30.9065 N   0  0  0  0  0  0  0  0  0  0  0  0
   19.9467    8.0194  -32.1949 C   0  0  0  0  0  0  0  0  0  0  0  0
   20.2051    7.1909  -33.2248 N   0  0  0  0  0  0  0  0  0  0  0  0
   19.7764    7.4649  -34.4921 C   0  0  0  0  0  0  0  0  0  0  0  0
   19.0645    8.5690  -34.7341 N   0  0  0  0  0  0  0  0  0  0  0  0
   18.7661    9.4471  -33.7115 C   0  0  0  0  0  0  0  0  0  0  0  0
   19.1968    9.1809  -32.4243 C   0  0  0  0  0  0  0  0  0  0  0  0
   18.7677   10.2149  -31.6186 N   0  0  0  0  0  0  0  0  0  0  0  0
   18.0925   11.0955  -32.3799 C   0  0  0  0  0  0  0  0  0  0  0  0
   18.0902   10.6362  -33.6634 N   0  0  0  0  0  0  0  0  0  0  0  0
   17.4630   11.2467  -34.7965 C   0  0  0  0  0  0  0  0  0  0  0  0
   17.4204   12.5187  -34.6932 O   0  0  0  0  0  0  0  0  0  0  0  0
   15.9705   12.8999  -34.5088 C   0  0  0  0  0  0  0  0  0  0  0  0
   15.8705   13.8872  -33.4391 C   0  0  0  0  0  0  0  0  0  0  0  0
   15.9341   13.5448  -32.2938 O   0  0  0  0  0  0  0  0  0  0  0  0
   15.7473   15.2693  -33.7552 N   0  0  0  0  0  0  0  0  0  0  0  0
   15.6892   16.2493  -32.6323 C   0  0  0  0  0  0  0  0  0  0  0  0
   14.2585   16.5005  -32.2663 C   0  0  0  0  0  0  0  0  0  0  0  0
   13.6397   17.2274  -33.3320 O   0  0  0  0  0  0  0  0  0  0  0  0
   15.2454   11.5260  -34.2348 C   0  0  0  0  0  0  0  0  0  0  0  0
   13.7953   11.5799  -34.7066 O   0  0  0  0  0  0  0  0  0  0  0  0
   15.9119   10.7144  -34.8808 C   0  0  0  0  0  0  0  0  0  0  0  0
   15.5018   10.6778  -36.3157 O   0  0  0  0  0  0  0  0  0  0  0  0
 19 18  1  0
 18 17  1  0
 17 16  1  0
 16 14  1  0
 14 15  2  0
 14 13  1  0
 13 12  1  0
 13 20  1  0
 12 11  1  0
 20 21  1  0
 20 22  1  0
 22 23  1  0
 22 11  1  0
 11 10  1  0
 10  9  1  0
 10  6  1  0
  9  8  2  0
  8  7  1  0
  7  6  1  0
  7  2  2  0
  6  5  2  0
  5  4  1  0
  4  3  2  0
  3  2  1  0
  2  1  1  0
M  END
$$$$
