
     RDKit          3D

114121  0  0  0  0  0  0  0  0999 V2000
  -10.8609   17.3548   23.8585 C   0  0  0  0  0  0  0  0  0  0  0  0
  -11.0942   18.5324   22.9386 C   0  0  0  0  0  0  0  0  0  0  0  0
   -9.7959   19.1493   22.4181 C   0  0  0  0  0  0  0  0  0  0  0  0
   -8.8611   19.5070   23.5754 C   0  0  0  0  0  0  0  0  0  0  0  0
  -10.0822   20.3839   21.5492 C   0  0  0  0  0  0  0  0  0  0  0  0
  -11.1797   20.1517   20.6098 N   0  0  0  0  0  0  0  0  0  0  0  0
  -12.1531   21.0391   20.3935 C   0  0  0  0  0  0  0  0  0  0  0  0
  -12.2690   22.0804   21.0401 O   0  0  0  0  0  0  0  0  0  0  0  0
  -13.1181   20.6790   19.2710 C   0  0  0  0  0  0  0  0  0  0  0  0
  -12.5872   21.1746   17.9171 C   0  0  0  0  0  0  0  0  0  0  0  0
  -13.2551   22.5091   17.7031 C   0  0  0  0  0  0  0  0  0  0  0  0
  -14.6043   22.4241   18.3907 C   0  0  0  0  0  0  0  0  0  0  0  0
  -14.4141   21.3640   19.4039 N   0  0  0  0  0  0  0  0  0  0  0  0
  -15.3083   20.9441   20.2993 C   0  0  0  0  0  0  0  0  0  0  0  0
  -15.1126   19.9801   21.0418 O   0  0  0  0  0  0  0  0  0  0  0  0
  -16.6620   21.6859   20.3783 C   0  0  0  0  0  0  0  0  0  0  0  0
  -16.5737   22.9272   21.2877 C   0  0  0  0  0  0  0  0  0  0  0  0
  -17.2544   22.5462   22.5681 C   0  0  0  0  0  0  0  0  0  0  0  0
  -18.2577   21.4934   22.2365 C   0  0  0  0  0  0  0  0  0  0  0  0
  -17.7101   20.8703   21.0147 N   0  0  0  0  0  0  0  0  0  0  0  0
  -18.2314   19.7364   20.5209 C   0  0  0  0  0  0  0  0  0  0  0  0
  -19.0296   19.0574   21.1947 O   0  0  0  0  0  0  0  0  0  0  0  0
  -17.8421   19.2717   19.1203 C   0  0  0  0  0  0  0  0  0  0  0  0
  -19.0956   19.1405   18.2520 C   0  0  0  0  0  0  0  0  0  0  0  0
  -19.8789   20.4653   18.1153 C   0  0  0  0  0  0  0  0  0  0  0  0
  -21.3795   20.2919   18.2701 C   0  0  0  0  0  0  0  0  0  0  0  0
  -22.1152   21.4939   17.8684 N   0  0  0  0  0  0  0  0  0  0  0  0
  -23.4425   21.5712   17.7626 C   0  0  0  0  0  0  0  0  0  0  0  0
  -24.0167   22.7071   17.3890 N   0  0  0  0  0  0  0  0  0  0  0  0
  -24.1990   20.5124   18.0296 N   0  0  0  0  0  0  0  0  0  0  0  0
  -17.0940   18.0117   19.2002 N   0  0  0  0  0  0  0  0  0  0  0  0
  -15.8783   17.8704   18.6770 C   0  0  0  0  0  0  0  0  0  0  0  0
  -15.3597   18.7505   17.9779 O   0  0  0  0  0  0  0  0  0  0  0  0
  -15.1432   16.5640   19.0081 C   0  0  0  0  0  0  0  0  0  0  0  0
  -14.9564   16.4342   20.5228 C   0  0  0  0  0  0  0  0  0  0  0  0
  -14.0858   17.4327   21.0489 O   0  0  0  0  0  0  0  0  0  0  0  0
  -13.8514   16.5102   18.3154 N   0  0  0  0  0  0  0  0  0  0  0  0
  -13.8058   16.3652   16.9907 C   0  0  0  0  0  0  0  0  0  0  0  0
  -14.8216   16.0844   16.3307 O   0  0  0  0  0  0  0  0  0  0  0  0
  -12.4713   16.5806   16.2639 C   0  0  0  0  0  0  0  0  0  0  0  0
  -12.4151   15.7877   14.9574 C   0  0  0  0  0  0  0  0  0  0  0  0
  -11.5462   16.4907   13.9125 C   0  0  0  0  0  0  0  0  0  0  0  0
  -11.2548   15.6194   12.6959 C   0  0  0  0  0  0  0  0  0  0  0  0
  -10.1656   16.2609   11.8207 C   0  0  0  0  0  0  0  0  0  0  0  0
  -10.0511   15.5756   10.5106 N   0  0  0  0  0  0  0  0  0  0  0  0
  -11.2927   16.2706   17.0668 N   0  0  0  0  0  0  0  0  0  0  0  0
  -10.6708   17.2252   17.7684 C   0  0  0  0  0  0  0  0  0  0  0  0
  -11.2261   18.2705   18.1175 O   0  0  0  0  0  0  0  0  0  0  0  0
   -9.2087   16.9760   18.1070 C   0  0  0  0  0  0  0  0  0  0  0  0
   -9.0314   16.4076   19.5101 C   0  0  0  0  0  0  0  0  0  0  0  0
   -7.6355   15.8334   19.6570 C   0  0  0  0  0  0  0  0  0  0  0  0
   -6.5479   16.6605   19.9427 C   0  0  0  0  0  0  0  0  0  0  0  0
   -5.2707   16.1527   20.0365 C   0  0  0  0  0  0  0  0  0  0  0  0
   -5.0516   14.7936   19.8314 C   0  0  0  0  0  0  0  0  0  0  0  0
   -3.7761   14.2810   19.9251 O   0  0  0  0  0  0  0  0  0  0  0  0
   -6.1072   13.9502   19.5315 C   0  0  0  0  0  0  0  0  0  0  0  0
   -7.3962   14.4761   19.4405 C   0  0  0  0  0  0  0  0  0  0  0  0
   -8.4901   18.2321   17.9885 N   0  0  0  0  0  0  0  0  0  0  0  0
   -8.1721   18.7352   16.8062 C   0  0  0  0  0  0  0  0  0  0  0  0
   -8.3137   18.1196   15.7435 O   0  0  0  0  0  0  0  0  0  0  0  0
   -7.5879   20.1341   16.8089 C   0  0  0  0  0  0  0  0  0  0  0  0
   -8.4673   21.0804   15.9853 C   0  0  0  0  0  0  0  0  0  0  0  0
   -8.2028   22.8498   16.2746 S   0  0  0  0  0  0  0  0  0  0  0  0
   -9.2314   23.3233   17.9790 S   0  0  0  0  0  0  0  0  0  0  0  0
   -7.9485   23.8147   19.1510 C   0  0  0  0  0  0  0  0  0  0  0  0
   -7.4253   22.6388   19.9759 C   0  0  0  0  0  0  0  0  0  0  0  0
   -8.4826   22.0657   20.8022 N   0  0  0  0  0  0  0  0  0  0  0  0
   -8.8522   20.7813   20.7369 C   0  0  0  0  0  0  0  0  0  0  0  0
   -8.2351   19.9358   20.0739 O   0  0  0  0  0  0  0  0  0  0  0  0
   -6.2533   23.0964   20.8341 C   0  0  0  0  0  0  0  0  0  0  0  0
   -6.4119   23.4290   22.0145 O   0  0  0  0  0  0  0  0  0  0  0  0
   -5.0767   23.1216   20.2219 N   0  0  0  0  0  0  0  0  0  0  0  0
   -3.8280   23.4157   20.9069 C   0  0  0  0  0  0  0  0  0  0  0  0
   -3.0594   22.1228   21.2147 C   0  0  0  0  0  0  0  0  0  0  0  0
   -3.7951   21.1965   22.1424 C   0  0  0  0  0  0  0  0  0  0  0  0
   -4.6907   20.2612   21.6441 C   0  0  0  0  0  0  0  0  0  0  0  0
   -5.3809   19.4133   22.4988 C   0  0  0  0  0  0  0  0  0  0  0  0
   -5.1837   19.4998   23.8652 C   0  0  0  0  0  0  0  0  0  0  0  0
   -4.2957   20.4305   24.3753 C   0  0  0  0  0  0  0  0  0  0  0  0
   -3.6071   21.2751   23.5153 C   0  0  0  0  0  0  0  0  0  0  0  0
   -2.9916   24.3474   20.0457 C   0  0  0  0  0  0  0  0  0  0  0  0
   -3.2478   24.4890   18.8427 O   0  0  0  0  0  0  0  0  0  0  0  0
   -1.9962   25.0230   20.6387 N   0  0  0  0  0  0  0  0  0  0  0  0
   -1.7259   25.1799   22.0800 C   0  0  0  0  0  0  0  0  0  0  0  0
   -1.0286   26.5044   22.1464 C   0  0  0  0  0  0  0  0  0  0  0  0
   -0.2532   26.6004   20.8702 C   0  0  0  0  0  0  0  0  0  0  0  0
   -1.1043   25.8629   19.8223 C   0  0  0  0  0  0  0  0  0  0  0  0
   -0.2372   25.0675   18.8550 C   0  0  0  0  0  0  0  0  0  0  0  0
    0.1202   25.5980   17.7960 O   0  0  0  0  0  0  0  0  0  0  0  0
    0.0958   23.8134   19.1715 N   0  0  0  0  0  0  0  0  0  0  0  0
    0.9086   22.9755   18.2815 C   0  0  0  0  0  0  0  0  0  0  0  0
    1.2679   21.6351   18.9602 C   0  0  0  0  0  0  0  0  0  0  0  0
    0.0379   20.7833   19.3214 C   0  0  0  0  0  0  0  0  0  0  0  0
    0.1824   19.9542   20.3518 N   0  0  0  0  0  0  0  0  0  0  0  0
   -1.0121   20.8630   18.6817 O   0  0  0  0  0  0  0  0  0  0  0  0
    0.2154   22.7164   16.9372 C   0  0  0  0  0  0  0  0  0  0  0  0
    0.6698   21.8836   16.1463 O   0  0  0  0  0  0  0  0  0  0  0  0
   -1.0966   23.1325   16.7088 N   0  0  0  0  0  0  0  0  0  0  0  0
   -0.8063   23.3377   16.6278 O   0  0  0  0  0  0  0  0  0  0  0  0
   -2.1207   23.2755   15.6892 C   0  0  0  0  0  0  0  0  0  0  0  0
   -3.1399   22.1441   15.6449 C   0  0  0  0  0  0  0  0  0  0  0  0
   -4.1316   22.2177   14.8956 O   0  0  0  0  0  0  0  0  0  0  0  0
   -2.8903   21.0991   16.4382 N   0  0  0  0  0  0  0  0  0  0  0  0
   -3.8179   19.9750   16.5398 C   0  0  0  0  0  0  0  0  0  0  0  0
   -3.2980   18.9380   17.5343 C   0  0  0  0  0  0  0  0  0  0  0  0
   -2.1098   18.1451   17.0943 C   0  0  0  0  0  0  0  0  0  0  0  0
   -1.9233   16.9426   18.0121 C   0  0  0  0  0  0  0  0  0  0  0  0
   -0.5386   16.5128   17.9610 N   0  0  0  0  0  0  0  0  0  0  0  0
   -0.1537   15.2499   17.9194 C   0  0  0  0  0  0  0  0  0  0  0  0
   -1.0718   14.2916   17.9377 N   0  0  0  0  0  0  0  0  0  0  0  0
    1.1456   14.9508   17.8592 N   0  0  0  0  0  0  0  0  0  0  0  0
   -5.1856   20.4425   17.0083 C   0  0  0  0  0  0  0  0  0  0  0  0
   -5.2990   21.1394   18.0191 O   0  0  0  0  0  0  0  0  0  0  0  0
   -6.2283   20.0400   16.2939 N   0  0  0  0  0  0  0  0  0  0  0  0
 98100  1  0
 98 96  1  0
 98 99  1  0
100101  1  0
100 99  1  0
101102  2  0
101103  1  0
103104  1  0
104112  1  0
104105  1  0
112113  2  0
112114  1  0
105106  1  0
106107  1  0
107108  1  0
108109  1  0
109110  2  0
109111  1  0
114 61  1  0
 61 59  1  0
 61 62  1  0
 59 60  2  0
 59 58  1  0
 62 63  1  0
 63 64  1  0
 58 49  1  0
 49 47  1  0
 49 50  1  0
 47 48  2  0
 47 46  1  0
 50 51  1  0
 51 52  2  0
 51 57  1  0
 52 53  1  0
 57 56  2  0
 53 54  2  0
 56 54  1  0
 54 55  1  0
 46 40  1  0
 40 38  1  0
 40 41  1  0
 38 39  2  0
 38 37  1  0
 41 42  1  0
 42 43  1  0
 43 44  1  0
 44 45  1  0
 37 34  1  0
 34 32  1  0
 34 35  1  0
 32 33  2  0
 32 31  1  0
 35 36  1  0
 31 23  1  0
 23 21  1  0
 23 24  1  0
 21 22  2  0
 21 20  1  0
 24 25  1  0
 25 26  1  0
 26 27  1  0
 27 28  1  0
 28 29  2  0
 28 30  1  0
 20 16  1  0
 20 19  1  0
 16 14  1  0
 16 17  1  0
 14 15  2  0
 14 13  1  0
 17 18  1  0
 18 19  1  0
 13  9  1  0
 13 12  1  0
  9  7  1  0
  9 10  1  0
  7  8  2  0
  7  6  1  0
 10 11  1  0
 11 12  1  0
  6  5  1  0
  5 68  1  0
  5  3  1  0
 68 69  2  0
 68 67  1  0
  3  2  1  0
  3  4  1  0
  2  1  1  0
 67 66  1  0
 66 70  1  0
 66 65  1  0
 70 71  2  0
 70 72  1  0
 65 64  1  0
 72 73  1  0
 73 81  1  0
 73 74  1  0
 81 82  2  0
 81 83  1  0
 74 75  1  0
 75 76  2  0
 75 80  1  0
 76 77  1  0
 80 79  2  0
 77 78  2  0
 79 78  1  0
 83 87  1  0
 83 84  1  0
 87 88  1  0
 87 86  1  0
 88 89  2  0
 88 90  1  0
 86 85  1  0
 85 84  1  0
 90 91  1  0
 91 96  1  0
 91 92  1  0
 96 97  2  0
 92 93  1  0
 93 95  2  0
 93 94  1  0
M  CHG  1  45   1
M  END
$$$$
