
     RDKit          3D

 18 19  0  0  0  0  0  0  0  0999 V2000
   29.5735  -22.7167  -55.2607 C   0  0  0  0  0  0  0  0  0  0  0  0
   28.6155  -22.1422  -56.0991 C   0  0  0  0  0  0  0  0  0  0  0  0
   27.6711  -21.3012  -55.5177 C   0  0  0  0  0  0  0  0  0  0  0  0
   26.6667  -20.6886  -56.2654 C   0  0  0  0  0  0  0  0  0  0  0  0
   26.6109  -20.9165  -57.6346 C   0  0  0  0  0  0  0  0  0  0  0  0
   27.5673  -21.7484  -58.2317 C   0  0  0  0  0  0  0  0  0  0  0  0
   28.5656  -22.3672  -57.4733 C   0  0  0  0  0  0  0  0  0  0  0  0
   29.4910  -23.2037  -58.1004 C   0  0  0  0  0  0  0  0  0  0  0  0
   29.4745  -24.5795  -57.8317 C   0  0  0  0  0  0  0  0  0  0  0  0
   30.3897  -25.4407  -58.4317 C   0  0  0  0  0  0  0  0  0  0  0  0
   30.3197  -26.6438  -58.1425 O   0  0  0  0  0  0  0  0  0  0  0  0
   31.3431  -24.8934  -59.3312 C   0  0  0  0  0  0  0  0  0  0  0  0
   32.2557  -25.7365  -59.9198 O   0  0  0  0  0  0  0  0  0  0  0  0
   31.3765  -23.5047  -59.6267 C   0  0  0  0  0  0  0  0  0  0  0  0
   32.2925  -22.9020  -60.5093 C   0  0  0  0  0  0  0  0  0  0  0  0
   33.0588  -23.6142  -61.1884 O   0  0  0  0  0  0  0  0  0  0  0  0
   32.3682  -21.6463  -60.6384 O   0  0  0  0  0  0  0  0  0  0  0  0
   30.4315  -22.6695  -58.9989 N   0  0  0  0  0  0  0  0  0  0  0  0
 16 15  2  0
 15 17  1  0
 15 14  1  0
 14 18  2  0
 14 12  1  0
 18  8  1  0
 12 13  1  0
 12 10  1  0
 10 11  2  0
 10  9  1  0
  9  8  2  0
  8  7  1  0
  7  6  1  0
  7  2  2  0
  6  5  2  0
  5  4  1  0
  4  3  2  0
  3  2  1  0
  2  1  1  0
M  END
$$$$
