
     RDKit          3D

 24 26  0  0  0  0  0  0  0  0999 V2000
   29.5389  -23.1917  -54.8749 C   0  0  0  0  0  0  0  0  0  0  0  0
   28.5532  -22.4718  -55.6145 C   0  0  0  0  0  0  0  0  0  0  0  0
   27.5935  -21.7734  -54.8935 C   0  0  0  0  0  0  0  0  0  0  0  0
   26.5887  -21.0115  -55.5087 C   0  0  0  0  0  0  0  0  0  0  0  0
   25.6600  -20.3696  -54.7378 C   0  0  0  0  0  0  0  0  0  0  0  0
   24.9076  -19.3117  -55.0760 N   0  0  0  0  0  0  0  0  0  0  0  0
   24.0018  -19.0712  -53.7664 O   0  0  0  0  0  0  0  0  0  0  0  0
   24.3499  -20.0289  -52.9324 C   0  0  0  0  0  0  0  0  0  0  0  0
   23.8646  -20.1983  -51.7979 O   0  0  0  0  0  0  0  0  0  0  0  0
   25.3047  -20.8010  -53.4894 N   0  0  0  0  0  0  0  0  0  0  0  0
   26.5671  -21.0053  -56.9114 C   0  0  0  0  0  0  0  0  0  0  0  0
   27.5253  -21.7219  -57.6502 C   0  0  0  0  0  0  0  0  0  0  0  0
   28.5342  -22.4507  -57.0144 C   0  0  0  0  0  0  0  0  0  0  0  0
   29.4508  -23.2475  -57.7534 C   0  0  0  0  0  0  0  0  0  0  0  0
   29.4007  -24.6291  -57.5221 C   0  0  0  0  0  0  0  0  0  0  0  0
   30.2199  -25.5526  -58.1820 C   0  0  0  0  0  0  0  0  0  0  0  0
   30.1391  -26.7598  -57.8895 O   0  0  0  0  0  0  0  0  0  0  0  0
   31.1032  -25.0513  -59.1323 C   0  0  0  0  0  0  0  0  0  0  0  0
   31.9276  -25.8696  -59.7825 O   0  0  0  0  0  0  0  0  0  0  0  0
   31.1328  -23.7030  -59.4264 C   0  0  0  0  0  0  0  0  0  0  0  0
   31.9431  -23.1284  -60.3762 C   0  0  0  0  0  0  0  0  0  0  0  0
   31.6837  -21.9554  -60.6325 O   0  0  0  0  0  0  0  0  0  0  0  0
   32.8054  -23.7500  -61.0464 O   0  0  0  0  0  0  0  0  0  0  0  0
   30.3092  -22.8070  -58.7355 N   0  0  0  0  0  0  0  0  0  0  0  0
 23 21  1  0
 21 22  2  0
 21 20  1  0
 20 24  2  0
 20 18  1  0
 24 14  1  0
 18 19  1  0
 18 16  1  0
 16 17  2  0
 16 15  1  0
 15 14  2  0
 14 13  1  0
 13  2  2  0
 13 12  1  0
  2  1  1  0
  2  3  1  0
  3  4  2  0
 12 11  2  0
 11  4  1  0
  4  5  1  0
  5  6  2  0
  5 10  1  0
  6  7  1  0
  7  8  1  0
  8  9  2  0
  8 10  1  0
M  END
$$$$
