
     RDKit          3D

 36 39  0  0  0  0  0  0  0  0999 V2000
    4.0656    4.5127  -29.4985 C   0  0  0  0  0  0  0  0  0  0  0  0
    3.3616    5.4480  -30.4354 C   0  0  0  0  0  0  0  0  0  0  0  0
    1.9967    5.7172  -29.9924 N   0  0  0  0  0  0  0  0  0  0  0  0
    1.1037    6.3605  -30.7445 C   0  0  0  0  0  0  0  0  0  0  0  0
    1.3457    6.7472  -31.8840 O   0  0  0  0  0  0  0  0  0  0  0  0
   -0.2414    6.5267  -30.1709 C   0  0  0  0  0  0  0  0  0  0  0  0
   -1.2498    7.2723  -30.7213 C   0  0  0  0  0  0  0  0  0  0  0  0
   -2.3637    7.2310  -29.8426 C   0  0  0  0  0  0  0  0  0  0  0  0
   -3.6725    7.8472  -29.7544 C   0  0  0  0  0  0  0  0  0  0  0  0
   -4.1329    8.7771  -30.8228 C   0  0  0  0  0  0  0  0  0  0  0  0
   -5.3676    8.5948  -31.4659 C   0  0  0  0  0  0  0  0  0  0  0  0
   -5.8179    9.4688  -32.4585 C   0  0  0  0  0  0  0  0  0  0  0  0
   -7.1333    9.2324  -33.2044 C   0  0  0  0  0  0  0  0  0  0  0  0
   -8.1705   10.3107  -32.8976 C   0  0  0  0  0  0  0  0  0  0  0  0
   -6.8976    9.1438  -34.7103 C   0  0  0  0  0  0  0  0  0  0  0  0
   -7.7238    7.9766  -32.8040 O   0  0  0  0  0  0  0  0  0  0  0  0
   -5.0094   10.5517  -32.7987 C   0  0  0  0  0  0  0  0  0  0  0  0
   -3.7855   10.7554  -32.1864 C   0  0  0  0  0  0  0  0  0  0  0  0
   -3.3461    9.8724  -31.2035 C   0  0  0  0  0  0  0  0  0  0  0  0
   -2.1073   10.0462  -30.5717 O   0  0  0  0  0  0  0  0  0  0  0  0
   -1.3791   11.2243  -30.6890 C   0  0  0  0  0  0  0  0  0  0  0  0
   -0.4651   11.3386  -31.7464 C   0  0  0  0  0  0  0  0  0  0  0  0
   -0.2031   10.2069  -32.7076 C   0  0  0  0  0  0  0  0  0  0  0  0
    0.2480   12.5292  -31.8507 C   0  0  0  0  0  0  0  0  0  0  0  0
    0.0316   13.5239  -30.9274 C   0  0  0  0  0  0  0  0  0  0  0  0
    0.7431   14.6769  -31.0453 F   0  0  0  0  0  0  0  0  0  0  0  0
   -0.8600   13.4137  -29.8861 C   0  0  0  0  0  0  0  0  0  0  0  0
   -1.5837   12.2335  -29.7349 C   0  0  0  0  0  0  0  0  0  0  0  0
   -2.4639   12.0357  -28.5283 C   0  0  0  0  0  0  0  0  0  0  0  0
   -4.4255    7.6144  -28.6389 C   0  0  0  0  0  0  0  0  0  0  0  0
   -4.0311    6.7976  -27.6116 N   0  0  0  0  0  0  0  0  0  0  0  0
   -4.9079    6.5963  -26.4575 C   0  0  0  0  0  0  0  0  0  0  0  0
   -2.7940    6.1326  -27.6056 C   0  0  0  0  0  0  0  0  0  0  0  0
   -2.5034    5.3768  -26.6797 O   0  0  0  0  0  0  0  0  0  0  0  0
   -1.9853    6.4191  -28.7623 C   0  0  0  0  0  0  0  0  0  0  0  0
   -0.6933    6.0064  -28.9818 N   0  0  0  0  0  0  0  0  0  0  0  0
 30 31  1  0
 31 32  1  0
 33 31  1  0
  7  8  1  0
  6  7  2  0
  8  9  1  0
  8 35  2  0
  9 30  2  0
  9 10  1  0
 35 33  1  0
 35 36  1  0
 11 12  2  0
 12 17  1  0
 12 13  1  0
 18 17  2  0
 19 18  1  0
 21 28  1  0
 21 22  2  0
 20 21  1  0
 27 25  1  0
 28 27  2  0
 24 25  2  0
 25 26  1  0
 22 24  1  0
 22 23  1  0
 13 14  1  0
  3  2  1  0
  4  3  1  0
  2  1  1  0
  4  5  2  0
 10 11  1  0
 10 19  2  0
 19 20  1  0
 28 29  1  0
  4  6  1  0
 13 15  1  0
 13 16  1  0
  6 36  1  0
 33 34  2  0
M  END
$$$$
