
     RDKit          3D

 27 32  0  0  0  0  0  0  0  0999 V2000
   -2.8991   -6.3030   17.7713 C   0  0  0  0  0  0  0  0  0  0  0  0
   -3.1937   -5.7325   16.3484 C   0  0  0  0  0  0  0  0  0  0  0  0
   -2.4310   -4.3765   16.2000 C   0  0  0  0  0  0  0  0  0  0  0  0
   -4.7305   -5.4179   16.2647 C   0  0  0  0  0  0  0  0  0  0  0  0
   -5.4473   -4.4691   16.9323 N   0  0  0  0  0  0  0  0  0  0  0  0
   -6.8164   -4.5408   16.5479 C   0  0  0  0  0  0  0  0  0  0  0  0
   -7.9613   -3.7878   16.9357 C   0  0  0  0  0  0  0  0  0  0  0  0
   -9.2168   -4.1008   16.3733 C   0  0  0  0  0  0  0  0  0  0  0  0
  -10.6893   -3.1969   16.8171 Cl  0  0  0  0  0  0  0  0  0  0  0  0
   -9.3547   -5.1449   15.4319 C   0  0  0  0  0  0  0  0  0  0  0  0
  -10.9788   -5.4789   14.7602 Cl  0  0  0  0  0  0  0  0  0  0  0  0
   -8.2281   -5.8920   15.0419 C   0  0  0  0  0  0  0  0  0  0  0  0
   -6.9594   -5.5831   15.6065 C   0  0  0  0  0  0  0  0  0  0  0  0
   -5.6445   -6.1462   15.4284 C   0  0  0  0  0  0  0  0  0  0  0  0
   -5.1611   -7.3350   14.4890 C   0  0  0  0  0  0  0  0  0  0  0  0
   -3.7415   -7.0163   13.9913 C   0  0  1  0  0  0  0  0  0  0  0  0
   -3.7009   -5.7995   12.9712 C   0  0  0  0  0  0  0  0  0  0  0  0
   -2.4162   -5.2829   12.8777 N   0  0  2  0  0  4  0  0  0  0  0  0
   -2.0452   -4.8822   11.6384 C   0  0  0  0  0  0  0  0  0  0  0  0
   -0.4204   -4.9709   11.6397 C   0  0  0  0  0  0  0  0  0  0  0  0
   -0.0695   -5.8633   12.7329 C   0  0  0  0  0  0  0  0  0  0  0  0
   -1.3536   -6.2788   13.3497 C   0  0  1  0  0  0  0  0  0  0  0  0
   -1.3837   -6.4563   14.8279 C   0  0  0  0  0  0  0  0  0  0  0  0
   -2.6717   -6.7843   15.2903 C   0  0  1  0  0  0  0  0  0  0  0  0
   -1.9166   -7.6711   12.7811 C   0  0  0  0  0  0  0  0  0  0  0  0
   -1.3182   -8.3477   12.0005 O   0  0  0  0  0  0  0  0  0  0  0  0
   -3.1770   -8.0152   13.2728 N   0  0  0  0  0  0  0  0  0  0  0  0
  7  8  1  0
  8 10  2  0
  8  9  1  0
  6  7  2  0
  6 13  1  0
  5  6  1  0
  4 14  2  0
  4  2  1  0
  4  5  1  0
 14 15  1  0
 14 13  1  0
 16 15  1  1
 16 24  1  0
 16 17  1  0
 16 27  1  0
 24 23  1  0
 24  2  1  1
 23 22  1  0
 22 25  1  0
 22 21  1  6
 22 18  1  0
 25 27  1  0
 25 26  2  0
 21 20  2  0
 20 19  1  0
 18 19  1  6
 17 18  1  0
  2  1  1  0
  2  3  1  0
 13 12  2  0
 12 10  1  0
 10 11  1  0
M  CHG  1  18   1
M  END
$$$$
