
     RDKit          3D

 20 22  0  0  0  0  0  0  0  0999 V2000
   20.2529   10.8354  -28.3023 O   0  0  0  0  0  0  0  0  0  0  0  0
   20.0033   10.4051  -29.5602 C   0  0  0  0  0  0  0  0  0  0  0  0
   19.7138   11.3423  -30.5483 C   0  0  0  0  0  0  0  0  0  0  0  0
   19.4814   10.9136  -31.8423 C   0  0  0  0  0  0  0  0  0  0  0  0
   19.4907    9.5453  -32.1690 C   0  0  0  0  0  0  0  0  0  0  0  0
   19.1246    9.1242  -33.5494 C   0  0  0  0  0  0  0  0  0  0  0  0
   19.8261    8.2922  -34.3812 C   0  0  0  0  0  0  0  0  0  0  0  0
   19.0874    8.1394  -35.5587 C   0  0  0  0  0  0  0  0  0  0  0  0
   17.9868    8.8468  -35.4669 N   0  0  0  0  0  0  0  0  0  0  0  0
   17.9670    9.4728  -34.2112 N   0  0  0  0  0  0  0  0  0  0  0  0
   16.9535   10.3133  -33.7098 C   0  0  0  0  0  0  0  0  0  0  0  0
   17.0229   11.6906  -33.9342 C   0  0  0  0  0  0  0  0  0  0  0  0
   16.0745   12.5366  -33.3691 C   0  0  0  0  0  0  0  0  0  0  0  0
   15.0384   12.0166  -32.5984 C   0  0  0  0  0  0  0  0  0  0  0  0
   14.9592   10.6475  -32.3683 C   0  0  0  0  0  0  0  0  0  0  0  0
   15.9247    9.8016  -32.9042 C   0  0  0  0  0  0  0  0  0  0  0  0
   15.8057    8.1013  -32.5988 Cl  0  0  0  0  0  0  0  0  0  0  0  0
   19.7665    8.6004  -31.1512 C   0  0  0  0  0  0  0  0  0  0  0  0
   19.7985    7.2684  -31.4030 O   0  0  0  0  0  0  0  0  0  0  0  0
   20.0417    9.0408  -29.8582 C   0  0  0  0  0  0  0  0  0  0  0  0
  6  5  1  0
 10  6  1  0
  6  7  2  0
  5  4  2  0
  5 18  1  0
  9  8  2  0
 10  9  1  0
  4  3  1  0
 18 20  2  0
 18 19  1  0
  8  7  1  0
 12 13  2  0
 11 12  1  0
 16 15  1  0
 11 16  2  0
 16 17  1  0
  3  2  2  0
 20  2  1  0
 13 14  1  0
 15 14  2  0
  2  1  1  0
 10 11  1  0
M  END
$$$$
