
     RDKit          3D

 31 35  0  0  0  0  0  0  0  0999 V2000
   -4.9798    6.8522  -27.0036 C   0  0  0  0  0  0  0  0  0  0  0  0
   -3.5587    6.5811  -27.3811 C   0  0  0  0  0  0  0  0  0  0  0  0
   -2.8313    5.8911  -26.6863 O   0  0  0  0  0  0  0  0  0  0  0  0
   -3.0886    7.1471  -28.5383 N   0  0  0  0  0  0  0  0  0  0  0  0
   -3.8573    7.9439  -29.4330 C   0  0  0  0  0  0  0  0  0  0  0  0
   -5.2258    7.7732  -29.6040 C   0  0  0  0  0  0  0  0  0  0  0  0
   -5.9118    8.5751  -30.4981 C   0  0  0  0  0  0  0  0  0  0  0  0
   -5.2520    9.5500  -31.2403 C   0  0  0  0  0  0  0  0  0  0  0  0
   -5.9973   10.4011  -32.2000 C   0  0  0  0  0  0  0  0  0  0  0  0
   -7.2746   10.7742  -32.0014 C   0  0  0  0  0  0  0  0  0  0  0  0
   -8.0826   11.6380  -32.9322 C   0  0  0  0  0  0  0  0  0  0  0  0
   -7.4459   11.7245  -34.2505 N   0  0  0  0  0  0  0  0  0  0  0  0
   -6.0145   11.9520  -34.1192 C   0  0  0  0  0  0  0  0  0  0  0  0
   -5.2550   10.8393  -33.4249 C   0  0  0  0  0  0  0  0  0  0  0  0
   -3.8791    9.7121  -31.0749 C   0  0  0  0  0  0  0  0  0  0  0  0
   -3.1855    8.9093  -30.1765 C   0  0  0  0  0  0  0  0  0  0  0  0
   -1.7898    9.0953  -30.0250 N   0  0  0  0  0  0  0  0  0  0  0  0
   -1.0650   10.1261  -30.7648 C   0  0  0  0  0  0  0  0  0  0  0  0
   -0.8929   11.3941  -29.9661 C   0  0  0  0  0  0  0  0  0  0  0  0
   -1.6350   11.5632  -28.8006 C   0  0  0  0  0  0  0  0  0  0  0  0
   -1.5075   12.7068  -28.0359 C   0  0  0  0  0  0  0  0  0  0  0  0
   -0.6363   13.6993  -28.4244 C   0  0  0  0  0  0  0  0  0  0  0  0
    0.1091   13.5506  -29.5777 C   0  0  0  0  0  0  0  0  0  0  0  0
   -0.0038   12.4041  -30.3611 C   0  0  0  0  0  0  0  0  0  0  0  0
    0.8209   12.2642  -31.6177 C   0  0  0  0  0  0  0  0  0  0  0  0
    1.9511   11.4305  -31.4240 O   0  0  0  0  0  0  0  0  0  0  0  0
   -0.9829    8.2014  -29.2057 C   0  0  0  0  0  0  0  0  0  0  0  0
   -1.6806    6.8784  -28.9268 C   0  0  0  0  0  0  0  0  0  0  0  0
   -1.6736    5.8915  -30.0883 C   0  0  0  0  0  0  0  0  0  0  0  0
   -0.4391    5.0728  -30.3036 C   0  0  0  0  0  0  0  0  0  0  0  0
   -1.6723    4.4229  -29.7847 C   0  0  0  0  0  0  0  0  0  0  0  0
 27 28  1  0
 17 27  1  0
 19 24  1  0
 18 19  1  0
 19 20  2  0
 21 22  2  0
 20 21  1  0
 23 22  1  0
 24 23  2  0
 24 25  1  0
  2  1  1  0
  2  3  2  0
  4  2  1  0
 28  4  1  0
  4  5  1  0
 28 29  1  0
 17 18  1  0
 17 16  1  0
 25 26  1  0
 16 15  1  0
 16  5  2  0
 15  8  2  0
  8  7  1  0
  8  9  1  0
  7  6  2  0
  6  5  1  0
  9 10  2  0
  9 14  1  0
 10 11  1  0
 11 12  1  0
 12 13  1  0
 13 14  1  0
 29 30  1  0
 29 31  1  0
 30 31  2  0
M  CHG  1  12   1
M  END
$$$$
