
     RDKit          3D

 20 22  0  0  0  0  0  0  0  0999 V2000
  -49.1706    7.0065  -17.5395 C   0  0  0  0  0  0  0  0  0  0  0  0
  -48.7284    7.6855  -16.2667 C   0  0  0  0  0  0  0  0  0  0  0  0
  -49.6412    8.0078  -15.2893 C   0  0  0  0  0  0  0  0  0  0  0  0
  -49.1669    8.6342  -14.1039 C   0  0  0  0  0  0  0  0  0  0  0  0
  -49.9720    8.9313  -13.2213 O   0  0  0  0  0  0  0  0  0  0  0  0
  -47.8402    8.8847  -13.9574 N   0  0  0  0  0  0  0  0  0  0  0  0
  -47.3268    9.5308  -12.7236 C   0  0  0  0  0  0  0  0  0  0  0  0
  -46.8680    8.4458  -11.7307 C   0  0  0  0  0  0  0  0  0  0  0  0
  -46.2432    9.0582  -10.4643 C   0  0  0  0  0  0  0  0  0  0  0  0
  -45.1534    9.9846  -10.8205 N   0  0  0  0  0  0  0  0  0  0  0  0
  -45.6207   11.0802  -11.6885 C   0  0  0  0  0  0  0  0  0  0  0  0
  -46.1866   10.5285  -13.0095 C   0  0  0  0  0  0  0  0  0  0  0  0
  -46.9962    8.5646  -14.8913 N   0  0  0  0  0  0  0  0  0  0  0  0
  -47.3635    8.0009  -16.0230 C   0  0  0  0  0  0  0  0  0  0  0  0
  -46.3141    7.6825  -17.0193 C   0  0  0  0  0  0  0  0  0  0  0  0
  -46.2315    8.3949  -18.2201 C   0  0  0  0  0  0  0  0  0  0  0  0
  -45.2253    8.0970  -19.1282 C   0  0  0  0  0  0  0  0  0  0  0  0
  -44.3019    7.1038  -18.8501 C   0  0  0  0  0  0  0  0  0  0  0  0
  -44.3969    6.3915  -17.6697 C   0  0  0  0  0  0  0  0  0  0  0  0
  -45.3992    6.6702  -16.7582 C   0  0  0  0  0  0  0  0  0  0  0  0
 14 13  2  0
 13  6  1  0
 14  2  1  0
 15 14  1  0
  2  3  2  0
  2  1  1  0
  3  4  1  0
  6  7  1  0
  7  8  1  0
  7 12  1  0
  8  9  1  0
  9 10  1  0
 16 17  2  0
 16 15  1  0
 17 18  1  0
 18 19  2  0
  6  4  1  0
  4  5  2  0
 15 20  2  0
 20 19  1  0
 10 11  1  0
 12 11  1  0
M  CHG  1  10   1
M  END
$$$$
