
     RDKit          3D

 20 22  0  0  0  0  0  0  0  0999 V2000
  -49.2069    6.9503  -17.4573 C   0  0  0  0  0  0  0  0  0  0  0  0
  -48.7610    7.7126  -16.2385 C   0  0  0  0  0  0  0  0  0  0  0  0
  -47.3517    7.9888  -15.9396 C   0  0  0  0  0  0  0  0  0  0  0  0
  -46.2355    7.5819  -16.8237 C   0  0  0  0  0  0  0  0  0  0  0  0
  -45.2172    6.7729  -16.3320 C   0  0  0  0  0  0  0  0  0  0  0  0
  -44.1416    6.4853  -17.1514 C   0  0  0  0  0  0  0  0  0  0  0  0
  -44.0312    6.9241  -18.4102 N   0  0  0  0  0  0  0  0  0  0  0  0
  -44.9889    7.7478  -18.8526 C   0  0  0  0  0  0  0  0  0  0  0  0
  -46.1029    8.0952  -18.1097 C   0  0  0  0  0  0  0  0  0  0  0  0
  -46.9862    8.6031  -14.8503 N   0  0  0  0  0  0  0  0  0  0  0  0
  -47.9354    9.0154  -13.9417 N   0  0  0  0  0  0  0  0  0  0  0  0
  -47.3806    9.6514  -12.7261 C   0  0  0  0  0  0  0  0  0  0  0  0
  -46.4469   10.8015  -13.0995 C   0  0  0  0  0  0  0  0  0  0  0  0
  -45.8422   11.4166  -11.8516 C   0  0  0  0  0  0  0  0  0  0  0  0
  -45.1352   10.3781  -11.0478 N   0  0  0  0  0  0  0  0  0  0  0  0
  -46.0482    9.2715  -10.6425 C   0  0  0  0  0  0  0  0  0  0  0  0
  -46.6607    8.6142  -11.8646 C   0  0  0  0  0  0  0  0  0  0  0  0
  -49.2896    8.7908  -14.1057 C   0  0  0  0  0  0  0  0  0  0  0  0
  -50.0863    9.2006  -13.2645 O   0  0  0  0  0  0  0  0  0  0  0  0
  -49.6631    8.1023  -15.3063 C   0  0  0  0  0  0  0  0  0  0  0  0
 20 18  1  0
 18 19  2  0
 18 11  1  0
  2  3  2  0
  3 10  1  0
  3  4  1  0
  4  9  2  0
  9  8  1  0
  7  6  1  0
  8  7  2  0
  6  5  2  0
 12 17  1  0
 11 12  1  0
 12 13  1  0
 13 14  1  0
 14 15  1  0
 17 16  1  0
  2  1  1  0
  2 20  1  0
 11 10  1  0
  4  5  1  0
 15 16  1  0
M  CHG  1  15   1
M  END
$$$$
