
     RDKit          3D

 19 21  0  0  0  0  0  0  0  0999 V2000
  -17.8729    2.8129    9.0865 C   0  0  0  0  0  0  0  0  0  0  0  0
  -17.7677    3.8612   10.2163 C   0  0  0  0  0  0  0  0  0  0  0  0
  -19.0554    4.1328   10.8015 N   0  0  0  0  0  0  0  0  0  0  0  0
  -19.9526    5.0827   10.4225 C   0  0  0  0  0  0  0  0  0  0  0  0
  -19.9018    6.0307    9.3827 C   0  0  0  0  0  0  0  0  0  0  0  0
  -20.9983    6.9049    9.1906 C   0  0  0  0  0  0  0  0  0  0  0  0
  -22.1369    6.8481   10.0392 C   0  0  0  0  0  0  0  0  0  0  0  0
  -23.2928    7.7602    9.8377 C   0  0  0  0  0  0  0  0  0  0  0  0
  -23.0556    9.1001   10.4090 N   0  0  0  0  0  0  0  0  0  0  0  0
  -24.1607   10.0510   10.1630 C   0  0  0  0  0  0  0  0  0  0  0  0
  -22.1765    5.8853   11.0732 C   0  0  0  0  0  0  0  0  0  0  0  0
  -21.0818    5.0155   11.2570 C   0  0  0  0  0  0  0  0  0  0  0  0
  -20.8374    3.9922   12.1734 C   0  0  0  0  0  0  0  0  0  0  0  0
  -21.5896    3.4558   13.2411 C   0  0  0  0  0  0  0  0  0  0  0  0
  -21.0247    2.3897   13.9876 C   0  0  0  0  0  0  0  0  0  0  0  0
  -19.7473    1.8667   13.6669 C   0  0  0  0  0  0  0  0  0  0  0  0
  -18.9801    0.4624   14.6297 Br  0  0  0  0  0  0  0  0  0  0  0  0
  -19.0233    2.4121   12.5961 C   0  0  0  0  0  0  0  0  0  0  0  0
  -19.5768    3.4731   11.8611 C   0  0  0  0  0  0  0  0  0  0  0  0
 14 15  1  0
 14 13  2  0
 15 16  2  0
 16 18  1  0
 16 17  1  0
 18 19  2  0
 19 13  1  0
 19  3  1  0
 13 12  1  0
  3  4  1  0
  3  2  1  0
 12  4  2  0
 12 11  1  0
  4  5  1  0
 11  7  2  0
  5  6  2  0
  6  7  1  0
  7  8  1  0
  2  1  1  0
  8  9  1  0
  9 10  1  0
M  CHG  1   9   1
M  END
$$$$
