
     RDKit          3D

 23 26  0  0  0  0  0  0  0  0999 V2000
  -17.9473    2.7728    9.1353 C   0  0  0  0  0  0  0  0  0  0  0  0
  -17.8210    3.7966   10.2326 C   0  0  0  0  0  0  0  0  0  0  0  0
  -19.1076    4.1050   10.8530 N   0  0  0  0  0  0  0  0  0  0  0  0
  -19.9969    5.0815   10.4329 C   0  0  0  0  0  0  0  0  0  0  0  0
  -19.8812    5.9999    9.3960 C   0  0  0  0  0  0  0  0  0  0  0  0
  -20.9490    6.8462    9.1398 C   0  0  0  0  0  0  0  0  0  0  0  0
  -22.1204    6.7928    9.8940 C   0  0  0  0  0  0  0  0  0  0  0  0
  -23.2876    7.6881    9.5590 C   0  0  0  0  0  0  0  0  0  0  0  0
  -23.2543    8.9594   10.2862 N   0  0  0  0  0  0  0  0  0  0  0  0
  -24.2784    9.8882    9.7997 C   0  0  0  0  0  0  0  0  0  0  0  0
  -22.2095    5.8820   10.9425 C   0  0  0  0  0  0  0  0  0  0  0  0
  -21.1539    5.0223   11.2223 C   0  0  0  0  0  0  0  0  0  0  0  0
  -20.9422    3.9624   12.1883 C   0  0  0  0  0  0  0  0  0  0  0  0
  -21.6983    3.4255   13.2254 C   0  0  0  0  0  0  0  0  0  0  0  0
  -21.1936    2.3641   13.9585 C   0  0  0  0  0  0  0  0  0  0  0  0
  -19.9386    1.8151   13.6723 C   0  0  0  0  0  0  0  0  0  0  0  0
  -19.4501    0.6516   14.4288 C   0  0  0  0  0  0  0  0  0  0  0  0
  -20.1347   -0.1064   15.3603 C   0  0  0  0  0  0  0  0  0  0  0  0
  -19.3470   -1.1849   15.8774 C   0  0  0  0  0  0  0  0  0  0  0  0
  -18.1125   -1.2195   15.3458 C   0  0  0  0  0  0  0  0  0  0  0  0
  -17.8672    0.0324   14.2153 S   0  0  0  0  0  0  0  0  0  0  0  0
  -19.1678    2.3536   12.6431 C   0  0  0  0  0  0  0  0  0  0  0  0
  -19.6778    3.4228   11.9182 C   0  0  0  0  0  0  0  0  0  0  0  0
  3  4  1  0
  3 23  1  0
  3  2  1  0
  4 12  2  0
  4  5  1  0
 12 11  1  0
 12 13  1  0
 11  7  2  0
  7  6  1  0
  7  8  1  0
  6  5  2  0
  8  9  1  0
 23 13  2  0
 23 22  1  0
 13 14  1  0
 14 15  2  0
 15 16  1  0
 16 22  2  0
 16 17  1  0
  2  1  1  0
 17 18  2  0
 17 21  1  0
 18 19  1  0
 19 20  2  0
 20 21  1  0
  9 10  1  0
M  CHG  1   9   1
M  END
$$$$
