
     RDKit          3D

 23 26  0  0  0  0  0  0  0  0999 V2000
  -17.9572    2.7885    9.2159 C   0  0  0  0  0  0  0  0  0  0  0  0
  -17.8617    3.7519   10.3873 C   0  0  0  0  0  0  0  0  0  0  0  0
  -19.1821    4.0793   10.9019 N   0  0  0  0  0  0  0  0  0  0  0  0
  -20.0262    5.0663   10.4192 C   0  0  0  0  0  0  0  0  0  0  0  0
  -19.8666    5.9870    9.3692 C   0  0  0  0  0  0  0  0  0  0  0  0
  -20.9203    6.8709    9.1148 C   0  0  0  0  0  0  0  0  0  0  0  0
  -22.0934    6.8555    9.8868 C   0  0  0  0  0  0  0  0  0  0  0  0
  -23.2251    7.7997    9.6038 C   0  0  0  0  0  0  0  0  0  0  0  0
  -23.1473    9.0928   10.3385 N   0  0  0  0  0  0  0  0  0  0  0  0
  -24.1920   10.0588    9.9112 C   0  0  0  0  0  0  0  0  0  0  0  0
  -22.2317    5.9208   10.9236 C   0  0  0  0  0  0  0  0  0  0  0  0
  -21.1863    5.0209   11.1974 C   0  0  0  0  0  0  0  0  0  0  0  0
  -21.0214    3.9803   12.1584 C   0  0  0  0  0  0  0  0  0  0  0  0
  -21.8351    3.4741   13.1867 C   0  0  0  0  0  0  0  0  0  0  0  0
  -21.3524    2.4136   13.9734 C   0  0  0  0  0  0  0  0  0  0  0  0
  -20.0844    1.8508   13.7575 C   0  0  0  0  0  0  0  0  0  0  0  0
  -19.5924    0.7445   14.5527 C   0  0  0  0  0  0  0  0  0  0  0  0
  -20.0854    0.1403   15.7264 C   0  0  0  0  0  0  0  0  0  0  0  0
  -19.3298   -0.8862   16.1237 N   0  0  0  0  0  0  0  0  0  0  0  0
  -18.3065   -0.9738   15.1861 O   0  0  0  0  0  0  0  0  0  0  0  0
  -18.4766   -0.0027   14.2504 C   0  0  0  0  0  0  0  0  0  0  0  0
  -19.2797    2.3473   12.7226 C   0  0  0  0  0  0  0  0  0  0  0  0
  -19.7679    3.4076   11.9521 C   0  0  0  0  0  0  0  0  0  0  0  0
 23  3  1  0
  3  4  1  0
  3  2  1  0
  8  9  1  0
  9 10  1  0
 22 23  2  0
 16 22  1  0
 23 13  1  0
 13 12  1  0
 13 14  2  0
 12  4  2  0
  4  5  1  0
 12 11  1  0
 11  7  2  0
  7  6  1  0
  7  8  1  0
  2  1  1  0
 17 18  1  0
 17 16  1  0
 17 21  2  0
 18 19  2  0
 14 15  1  0
 15 16  2  0
  6  5  2  0
 21 20  1  0
 20 19  1  0
M  CHG  1   9   1
M  END
$$$$
