
     RDKit          3D

 24 27  0  0  0  0  0  0  0  0999 V2000
  -17.9602    2.8088    9.1423 C   0  0  0  0  0  0  0  0  0  0  0  0
  -17.8372    3.7726   10.3266 C   0  0  0  0  0  0  0  0  0  0  0  0
  -19.1394    4.1291   10.8502 N   0  0  0  0  0  0  0  0  0  0  0  0
  -20.0149    5.1151   10.3872 C   0  0  0  0  0  0  0  0  0  0  0  0
  -19.8778    6.0100    9.3057 C   0  0  0  0  0  0  0  0  0  0  0  0
  -20.9182    6.9094    9.0216 C   0  0  0  0  0  0  0  0  0  0  0  0
  -22.0804    6.9340    9.8326 C   0  0  0  0  0  0  0  0  0  0  0  0
  -23.2074    7.8973    9.5410 C   0  0  0  0  0  0  0  0  0  0  0  0
  -23.0957    9.1146   10.3659 N   0  0  0  0  0  0  0  0  0  0  0  0
  -24.1455   10.1187   10.0849 C   0  0  0  0  0  0  0  0  0  0  0  0
  -22.2237    6.0344   10.9065 C   0  0  0  0  0  0  0  0  0  0  0  0
  -21.1917    5.1215   11.1933 C   0  0  0  0  0  0  0  0  0  0  0  0
  -21.0108    4.1026   12.1815 C   0  0  0  0  0  0  0  0  0  0  0  0
  -21.7836    3.6153   13.2486 C   0  0  0  0  0  0  0  0  0  0  0  0
  -21.2825    2.5718   14.0502 C   0  0  0  0  0  0  0  0  0  0  0  0
  -20.0206    1.9806   13.8163 C   0  0  0  0  0  0  0  0  0  0  0  0
  -19.5539    0.8860   14.6754 C   0  0  0  0  0  0  0  0  0  0  0  0
  -20.0971    0.4044   15.8429 C   0  0  0  0  0  0  0  0  0  0  0  0
  -19.3648   -0.6893   16.3930 C   0  0  0  0  0  0  0  0  0  0  0  0
  -19.7490   -1.3848   17.6615 C   0  0  0  0  0  0  0  0  0  0  0  0
  -18.2787   -1.0316   15.6269 C   0  0  0  0  0  0  0  0  0  0  0  0
  -18.1354   -0.0175   14.2253 S   0  0  0  0  0  0  0  0  0  0  0  0
  -19.2527    2.4609   12.7339 C   0  0  0  0  0  0  0  0  0  0  0  0
  -19.7389    3.5123   11.9400 C   0  0  0  0  0  0  0  0  0  0  0  0
  3  4  1  0
  3 24  1  0
  3  2  1  0
  4 12  2  0
  4  5  1  0
 12 11  1  0
 12 13  1  0
 11  7  2  0
  7  6  1  0
  7  8  1  0
  6  5  2  0
  8  9  1  0
 24 13  2  0
 24 23  1  0
 13 14  1  0
 14 15  2  0
 15 16  1  0
 16 23  2  0
 16 17  1  0
  2  1  1  0
 17 18  2  0
 17 22  1  0
 18 19  1  0
 19 21  2  0
 19 20  1  0
 21 22  1  0
  9 10  1  0
M  CHG  1   9   1
M  END
$$$$
