
     RDKit          3D

 24 27  0  0  0  0  0  0  0  0999 V2000
   -3.1415    7.6093   14.8316 C   0  0  0  0  0  0  0  0  0  0  0  0
   -2.5593    8.4711   13.7983 N   0  0  0  0  0  4  0  0  0  0  0  0
   -2.0434    9.6981   14.4001 C   0  0  0  0  0  0  0  0  0  0  0  0
   -1.5033    7.7691   13.0603 C   0  0  0  0  0  0  0  0  0  0  0  0
   -2.0098    6.6062   12.2597 C   0  0  0  0  0  0  0  0  0  0  0  0
   -2.8608    6.7904   11.1924 N   0  0  0  0  0  0  0  0  0  0  0  0
   -3.2421    5.5531   10.7058 C   0  0  0  0  0  0  0  0  0  0  0  0
   -4.0668    5.2206    9.6333 C   0  0  0  0  0  0  0  0  0  0  0  0
   -4.2699    3.8735    9.3524 C   0  0  0  0  0  0  0  0  0  0  0  0
   -3.6819    2.8871   10.1362 C   0  0  0  0  0  0  0  0  0  0  0  0
   -2.8405    3.2256   11.1932 C   0  0  0  0  0  0  0  0  0  0  0  0
   -2.6199    4.5684   11.5002 C   0  0  0  0  0  0  0  0  0  0  0  0
   -1.8339    5.2704   12.4872 C   0  0  0  0  0  0  0  0  0  0  0  0
   -1.0363    4.6418   13.6146 C   0  0  1  0  0  0  0  0  0  0  0  0
   -1.8086    3.6663   14.3751 N   0  0  0  0  0  0  0  0  0  0  0  0
   -1.2692    2.4353   14.3938 C   0  0  0  0  0  0  0  0  0  0  0  0
   -1.7473    1.4460   14.9381 O   0  0  0  0  0  0  0  0  0  0  0  0
   -0.0276    2.5125   13.5991 C   0  0  0  0  0  0  0  0  0  0  0  0
    0.8956    1.5273   13.2520 C   0  0  0  0  0  0  0  0  0  0  0  0
    1.9880    1.8651   12.4707 C   0  0  0  0  0  0  0  0  0  0  0  0
    2.1539    3.1787   12.0412 C   0  0  0  0  0  0  0  0  0  0  0  0
    3.2411    3.5376   11.3170 O   0  0  0  0  0  0  0  0  0  0  0  0
    1.2318    4.1578   12.3866 C   0  0  0  0  0  0  0  0  0  0  0  0
    0.1232    3.8132   13.1529 C   0  0  0  0  0  0  0  0  0  0  0  0
 24 23  2  0
 23 21  1  0
 24 18  1  0
 14 24  1  0
 18 19  2  0
 18 16  1  0
 14 13  1  6
 14 15  1  0
 13 12  1  0
 12  7  2  0
 12 11  1  0
  7  8  1  0
  8  9  2  0
  5  4  1  0
  4  2  1  0
  2  1  1  0
 19 20  1  0
 13  5  2  0
  5  6  1  0
  7  6  1  0
 11 10  2  0
  9 10  1  0
 20 21  2  0
  2  3  1  0
 21 22  1  0
 16 15  1  0
 16 17  2  0
M  CHG  1   2   1
M  END
$$$$
