
     RDKit          3D

 39 45  0  0  0  0  0  0  0  0999 V2000
   -2.7865    3.2107   16.6414 O   0  0  0  0  0  0  0  0  0  0  0  0
   -2.1741    3.6512   15.6835 C   0  0  0  0  0  0  0  0  0  0  0  0
   -2.3316    4.8777   15.1589 N   0  0  0  0  0  0  0  0  0  0  0  0
   -1.4306    5.0470   14.0192 C   0  0  2  0  0  0  0  0  0  0  0  0
   -2.2243    5.4766   12.7948 C   0  0  0  0  0  0  0  0  0  0  0  0
   -2.4053    6.7481   12.3875 C   0  0  0  0  0  0  0  0  0  0  0  0
   -1.8647    7.9852   13.0631 C   0  0  0  0  0  0  0  0  0  0  0  0
   -3.0009    8.7344   13.6348 N   0  0  0  0  0  4  0  0  0  0  0  0
   -2.8082   10.1978   13.7046 C   0  0  0  0  0  0  0  0  0  0  0  0
   -1.7912   10.5348   14.7656 C   0  0  0  0  0  0  0  0  0  0  0  0
   -2.1698   10.7149   16.0997 C   0  0  0  0  0  0  0  0  0  0  0  0
   -1.2353   10.9834   17.0680 C   0  0  0  0  0  0  0  0  0  0  0  0
    0.1204   11.0692   16.7064 C   0  0  0  0  0  0  0  0  0  0  0  0
    1.3662   11.3337   17.4304 C   0  0  0  0  0  0  0  0  0  0  0  0
    2.3669   11.2990   16.5298 C   0  0  0  0  0  0  0  0  0  0  0  0
    1.8697   11.0048   15.2879 N   0  0  0  0  0  0  0  0  0  0  0  0
    2.6613   10.8131   14.0613 C   0  0  0  0  0  0  0  0  0  0  0  0
    2.6220    9.3799   13.5555 C   0  0  0  0  0  0  0  0  0  0  0  0
    2.7726    9.1252   12.1949 C   0  0  0  0  0  0  0  0  0  0  0  0
    2.7594    7.8189   11.7105 C   0  0  0  0  0  0  0  0  0  0  0  0
    2.6091    6.7478   12.5838 C   0  0  0  0  0  0  0  0  0  0  0  0
    2.4800    6.9906   13.9448 C   0  0  0  0  0  0  0  0  0  0  0  0
    2.4910    8.3001   14.4260 C   0  0  0  0  0  0  0  0  0  0  0  0
    0.5034   10.8819   15.3581 C   0  0  0  0  0  0  0  0  0  0  0  0
   -0.4639   10.6086   14.3990 C   0  0  0  0  0  0  0  0  0  0  0  0
   -3.2066    6.7828   11.2797 N   0  0  0  0  0  0  0  0  0  0  0  0
   -3.5645    5.5131   10.9099 C   0  0  0  0  0  0  0  0  0  0  0  0
   -4.3643    5.0077    9.8763 C   0  0  0  0  0  0  0  0  0  0  0  0
   -4.5660    3.6432    9.7793 C   0  0  0  0  0  0  0  0  0  0  0  0
   -3.9713    2.7701   10.7002 C   0  0  0  0  0  0  0  0  0  0  0  0
   -3.1979    3.2546   11.7288 C   0  0  0  0  0  0  0  0  0  0  0  0
   -2.9737    4.6314   11.8512 C   0  0  0  0  0  0  0  0  0  0  0  0
   -0.6812    3.7415   13.8881 C   0  0  0  0  0  0  0  0  0  0  0  0
    0.3152    3.2860   13.0454 C   0  0  0  0  0  0  0  0  0  0  0  0
    0.8293    1.9989   13.2151 C   0  0  0  0  0  0  0  0  0  0  0  0
    1.7804    1.5217   12.3750 O   0  0  0  0  0  0  0  0  0  0  0  0
    0.3549    1.1750   14.2418 C   0  0  0  0  0  0  0  0  0  0  0  0
   -0.6391    1.6184   15.0902 C   0  0  0  0  0  0  0  0  0  0  0  0
   -1.1505    2.9143   14.9306 C   0  0  0  0  0  0  0  0  0  0  0  0
 35 37  1  0
 38 37  2  0
 34 35  2  0
 35 36  1  0
 33 34  1  0
  2 39  1  0
  3  2  1  0
  2  1  2  0
  4 33  1  0
 33 39  2  0
  5 32  1  0
  4  5  1  6
  6  5  2  0
 27 32  2  0
 32 31  1  0
 28 29  2  0
 29 30  1  0
 27 28  1  0
 24 13  2  0
 13 12  1  0
 14 13  1  0
 12 11  2  0
 10 11  1  0
 24 25  1  0
 25 10  2  0
  4  3  1  0
  7  6  1  0
  8  7  1  0
  6 26  1  0
 26 27  1  0
 31 30  2  0
 16 24  1  0
 10  9  1  0
  9  8  1  0
 39 38  1  0
 15 14  2  0
 16 15  1  0
 17 18  1  0
 17 16  1  0
 18 19  2  0
 18 23  1  0
 19 20  1  0
 20 21  2  0
 21 22  1  0
 22 23  2  0
M  CHG  1   8   1
M  END
$$$$
