
     RDKit          3D

 39 45  0  0  0  0  0  0  0  0999 V2000
    3.1037    6.0597   14.1039 C   0  0  0  0  0  0  0  0  0  0  0  0
    2.6553    7.4151   13.7736 N   0  0  0  0  0  0  0  0  0  0  0  0
    1.9026    7.7747   12.7220 C   0  0  0  0  0  0  0  0  0  0  0  0
    1.7113    9.0793   12.7163 N   0  0  0  0  0  0  0  0  0  0  0  0
    2.3732    9.5828   13.8202 C   0  0  0  0  0  0  0  0  0  0  0  0
    2.3393   11.0426   14.1606 C   0  0  0  0  0  0  0  0  0  0  0  0
    1.5744   11.2379   15.3897 N   0  0  0  0  0  0  0  0  0  0  0  0
    2.1012   11.5452   16.6242 C   0  0  0  0  0  0  0  0  0  0  0  0
    1.1286   11.5422   17.5637 C   0  0  0  0  0  0  0  0  0  0  0  0
   -0.1041   11.2428   16.8935 C   0  0  0  0  0  0  0  0  0  0  0  0
   -1.4420   11.1022   17.2872 C   0  0  0  0  0  0  0  0  0  0  0  0
   -2.4172   10.7612   16.3574 C   0  0  0  0  0  0  0  0  0  0  0  0
   -2.0949   10.5685   15.0080 C   0  0  0  0  0  0  0  0  0  0  0  0
   -3.1490   10.1860   13.9964 C   0  0  0  0  0  0  0  0  0  0  0  0
   -3.2265    8.7334   13.7503 N   0  0  0  0  0  4  0  0  0  0  0  0
   -2.0173    8.1773   13.0934 C   0  0  0  0  0  0  0  0  0  0  0  0
   -2.4183    6.8885   12.4455 C   0  0  0  0  0  0  0  0  0  0  0  0
   -3.2163    6.8818   11.3250 N   0  0  0  0  0  0  0  0  0  0  0  0
   -3.5244    5.5698   11.0029 C   0  0  0  0  0  0  0  0  0  0  0  0
   -4.2992    5.0538    9.9676 C   0  0  0  0  0  0  0  0  0  0  0  0
   -4.4502    3.6755    9.8855 C   0  0  0  0  0  0  0  0  0  0  0  0
   -3.7764    2.8319   10.7657 C   0  0  0  0  0  0  0  0  0  0  0  0
   -3.0207    3.3531   11.8085 C   0  0  0  0  0  0  0  0  0  0  0  0
   -2.8731    4.7355   11.9330 C   0  0  0  0  0  0  0  0  0  0  0  0
   -2.1572    5.6066   12.8376 C   0  0  0  0  0  0  0  0  0  0  0  0
   -1.3653    5.1786   14.0610 C   0  0  1  0  0  0  0  0  0  0  0  0
   -2.2649    4.9551   15.1899 N   0  0  0  0  0  0  0  0  0  0  0  0
   -2.2195    3.7135   15.7017 C   0  0  0  0  0  0  0  0  0  0  0  0
   -2.8878    3.2927   16.6464 O   0  0  0  0  0  0  0  0  0  0  0  0
   -1.1895    2.9833   14.9368 C   0  0  0  0  0  0  0  0  0  0  0  0
   -0.7443    1.6700   15.0444 C   0  0  0  0  0  0  0  0  0  0  0  0
    0.2200    1.2043   14.1704 C   0  0  0  0  0  0  0  0  0  0  0  0
    0.7613    2.0554   13.2132 C   0  0  0  0  0  0  0  0  0  0  0  0
    1.7686    1.5787   12.4280 O   0  0  0  0  0  0  0  0  0  0  0  0
    0.3275    3.3752   13.1154 C   0  0  0  0  0  0  0  0  0  0  0  0
   -0.6579    3.8417   13.9880 C   0  0  0  0  0  0  0  0  0  0  0  0
   -0.7731   10.7447   14.6029 C   0  0  0  0  0  0  0  0  0  0  0  0
    0.2079   11.0533   15.5358 C   0  0  0  0  0  0  0  0  0  0  0  0
    2.9461    8.5415   14.4848 C   0  0  0  0  0  0  0  0  0  0  0  0
 33 32  1  0
 31 32  2  0
 35 33  2  0
 33 34  1  0
 36 35  1  0
 28 29  2  0
 27 28  1  0
 28 30  1  0
 36 30  2  0
 26 36  1  0
 25 24  1  0
 26 25  1  6
 17 25  2  0
 19 24  2  0
 24 23  1  0
 20 21  2  0
 21 22  1  0
 19 20  1  0
 38 10  2  0
 11 10  1  0
 10  9  1  0
 12 11  2  0
 13 12  1  0
 37 38  1  0
 13 37  2  0
 30 31  1  0
 26 27  1  0
 16 17  1  0
 15 16  1  0
 17 18  1  0
 18 19  1  0
 23 22  2  0
 14 15  1  0
 38  7  1  0
 13 14  1  0
  9  8  2  0
  8  7  1  0
  7  6  1  0
  6  5  1  0
  5 39  2  0
  5  4  1  0
 39  2  1  0
  2  3  1  0
  2  1  1  0
  3  4  2  0
M  CHG  1  15   1
M  END
$$$$
