
     RDKit          3D

 50 57  0  0  0  0  0  0  0  0999 V2000
    6.8372    4.2811   -8.9626 C   0  0  0  0  0  0  0  0  0  0  0  0
    7.6086    3.7675   -7.8159 N   0  0  0  0  0  0  0  0  0  0  0  0
    9.0860    3.5687   -7.8624 C   0  0  0  0  0  0  0  0  0  0  0  0
    9.6880    2.8265   -8.9016 C   0  0  0  0  0  0  0  0  0  0  0  0
   10.5785    1.7788   -8.6453 C   0  0  0  0  0  0  0  0  0  0  0  0
   11.1675    1.1049   -9.7202 C   0  0  0  0  0  0  0  0  0  0  0  0
   10.8745    1.4943  -11.0482 N   0  0  0  0  0  0  0  0  0  0  0  0
   10.0205    2.5096  -11.2833 C   0  0  0  0  0  0  0  0  0  0  0  0
    9.6935    2.9824  -12.4890 N   0  0  0  0  0  0  0  0  0  0  0  0
   10.4936    2.7193  -13.5273 C   0  0  0  0  0  0  0  0  0  0  0  0
   10.2087    3.2336  -14.6095 O   0  0  0  0  0  0  0  0  0  0  0  0
   11.5437    1.8803  -13.2253 N   0  0  0  0  0  0  0  0  0  0  0  0
   12.6176    1.3662  -13.9154 C   0  0  0  0  0  0  0  0  0  0  0  0
   13.5624    0.7299  -13.0986 C   0  0  0  0  0  0  0  0  0  0  0  0
   14.7040    0.1640  -13.6333 C   0  0  0  0  0  0  0  0  0  0  0  0
   14.8579    0.2544  -15.0053 C   0  0  0  0  0  0  0  0  0  0  0  0
   13.9431    0.8575  -15.7768 C   0  0  0  0  0  0  0  0  0  0  0  0
   12.8174    1.4161  -15.2627 C   0  0  0  0  0  0  0  0  0  0  0  0
   12.1070    1.9570  -16.3655 C   0  0  0  0  0  0  0  0  0  0  0  0
   10.8242    1.2067  -16.6387 C   0  0  0  0  0  0  0  0  0  0  0  0
   10.1566    1.8134  -17.8876 C   0  0  0  0  0  0  0  0  0  0  0  0
   11.0159    1.6085  -19.1382 C   0  0  0  0  0  0  0  0  0  0  0  0
   12.4318    2.1593  -18.8884 C   0  0  0  0  0  0  0  0  0  0  0  0
   12.9177    1.7266  -17.5381 N   0  0  0  0  0  0  0  0  0  0  0  0
   13.9608    1.0305  -17.1063 C   0  0  0  0  0  0  0  0  0  0  0  0
   14.8748    0.6425  -17.8330 O   0  0  0  0  0  0  0  0  0  0  0  0
    9.4641    3.1799  -10.2201 C   0  0  0  0  0  0  0  0  0  0  0  0
    7.3821    4.7218   -6.7263 C   0  0  0  0  0  0  0  0  0  0  0  0
    6.7575    3.9226   -5.6078 C   0  0  0  0  0  0  0  0  0  0  0  0
    7.4237    3.1776   -4.7434 C   0  0  0  0  0  0  0  0  0  0  0  0
    6.4645    2.6529   -3.9859 N   0  0  0  0  0  0  0  0  0  0  0  0
    6.6485    1.7284   -2.8521 C   0  0  0  0  0  0  0  0  0  0  0  0
    6.6769    2.4801   -1.5397 C   0  0  0  0  0  0  0  0  0  0  0  0
    5.3383    2.5143   -0.9079 N   0  0  0  0  0  0  0  0  0  0  0  0
    4.6236    3.5979   -0.5140 C   0  0  0  0  0  0  0  0  0  0  0  0
    3.2257    3.4739   -0.5779 C   0  0  0  0  0  0  0  0  0  0  0  0
    2.6490    2.2860   -1.0590 C   0  0  0  0  0  0  0  0  0  0  0  0
    1.1912    2.1511   -0.6146 C   0  0  0  0  0  0  0  0  0  0  0  0
    0.4605    3.4074   -1.0398 C   0  0  0  0  0  0  0  0  0  0  0  0
    1.0172    4.5471   -0.2093 C   0  0  0  0  0  0  0  0  0  0  0  0
    2.4331    4.5630   -0.1864 C   0  0  0  0  0  0  0  0  0  0  0  0
    3.0343    5.6759    0.2673 N   0  0  0  0  0  0  0  0  0  0  0  0
    4.3641    5.8122    0.3526 C   0  0  0  0  0  0  0  0  0  0  0  0
    4.8788    7.0163    0.8303 C   0  0  0  0  0  0  0  0  0  0  0  0
    6.2526    7.2189    0.9393 C   0  0  0  0  0  0  0  0  0  0  0  0
    7.1263    6.2049    0.5687 C   0  0  0  0  0  0  0  0  0  0  0  0
    6.5997    5.0068    0.1006 C   0  0  0  0  0  0  0  0  0  0  0  0
    5.2213    4.7814   -0.0307 C   0  0  0  0  0  0  0  0  0  0  0  0
    5.3191    3.0689   -4.4130 N   0  0  0  0  0  0  0  0  0  0  0  0
    5.4568    3.8245   -5.3841 N   0  0  0  0  0  0  0  0  0  0  0  0
 37 38  2  0
 36 37  1  0
 38 39  1  0
 40 39  2  0
 41 40  1  0
 36 41  2  0
 41 42  1  0
 35 36  1  0
 35 48  2  0
 34 35  1  0
 48 43  1  0
 48 47  1  0
 43 44  1  0
 43 42  2  0
 44 45  2  0
 46 45  1  0
 47 46  2  0
 32 33  1  0
 33 34  1  0
 31 32  1  0
 29 30  2  0
 28 29  1  0
 29 50  1  0
 30 31  1  0
  2 28  1  0
  4  3  1  0
  3  2  1  0
  4  5  2  0
 27  4  1  0
  6  5  1  0
  7  6  2  0
  8 27  2  0
  8  7  1  0
  9  8  1  0
 10  9  1  0
 12 10  1  0
 10 11  2  0
 13 18  1  0
 13 14  2  0
 13 12  1  0
 18 17  2  0
 18 19  1  0
 17 16  1  0
 17 25  1  0
 16 15  2  0
 15 14  1  0
 25 24  1  0
 25 26  2  0
 19 20  1  0
 19 24  1  0
 20 21  1  0
 21 22  1  0
 22 23  1  0
 23 24  1  0
  2  1  1  0
 31 49  1  0
 49 50  2  0
M  CHG  1   2   1
M  END
$$$$
