
     RDKit          3D

 12 12  0  0  0  0  0  0  0  0999 V2000
    2.1462    6.0784   -2.2074 O   0  0  0  0  0  0  0  0  0  0  0  0
    2.3525    4.8486   -2.8624 C   0  0  0  0  0  0  0  0  0  0  0  0
    2.0335    3.7782   -1.8610 C   0  0  0  0  0  0  0  0  0  0  0  0
    0.7247    4.0714   -1.2292 O   0  0  0  0  0  0  0  0  0  0  0  0
    0.3363    3.0414   -0.2119 C   0  0  0  0  0  0  0  0  0  0  0  0
   -0.8778    3.3960    0.2657 O   0  0  0  0  0  0  0  0  0  0  0  0
    0.3546    1.6447   -0.8385 C   0  0  0  0  0  0  0  0  0  0  0  0
    0.0718    0.6660    0.1764 O   0  0  0  0  0  0  0  0  0  0  0  0
    1.7008    1.3820   -1.4343 C   0  0  0  0  0  0  0  0  0  0  0  0
    1.8248    0.0417   -1.9969 O   0  0  0  0  0  0  0  0  0  0  0  0
    2.0191    2.3883   -2.4927 C   0  0  0  0  0  0  0  0  0  0  0  0
    3.2927    2.0922   -3.0855 O   0  0  0  0  0  0  0  0  0  0  0  0
  9  7  1  0
  7  5  1  0
  7  8  1  0
 11  9  1  0
  9 10  1  0
  3 11  1  0
 11 12  1  0
  2  3  1  0
  3  4  1  0
  1  2  1  0
  5  6  1  0
  5  4  1  0
M  END
$$$$
