
     RDKit          3D

 77 79  0  0  0  0  0  0  0  0999 V2000
    3.6075  -15.7625    4.0944 N   0  0  0  0  0  0  0  0  0  0  0  0
    3.5583  -16.9451    4.7247 C   0  0  0  0  0  0  0  0  0  0  0  0
    4.5311  -17.2446    5.6070 N   0  0  0  0  0  0  0  0  0  0  0  0
    2.5325  -17.7979    4.4577 N   0  0  0  0  0  0  0  0  0  0  0  0
    2.3100  -19.1552    5.0144 C   0  0  0  0  0  0  0  0  0  0  0  0
    2.1290  -19.1511    6.5386 C   0  0  0  0  0  0  0  0  0  0  0  0
    0.7196  -18.6899    6.9287 C   0  0  0  0  0  0  0  0  0  0  0  0
    0.5641  -18.8397    8.4494 C   0  0  0  0  0  0  0  0  0  0  0  0
   -0.0422  -20.1511    8.7654 N   0  0  0  0  0  0  0  0  0  0  0  0
    0.3465  -20.8766    9.8350 C   0  0  0  0  0  0  0  0  0  0  0  0
    1.2114  -20.5009   10.6274 O   0  0  0  0  0  0  0  0  0  0  0  0
   -0.3510  -22.2464   10.0402 C   0  0  0  0  0  0  0  0  0  0  0  0
   -1.5389  -22.3979    9.1749 N   0  0  0  0  0  0  0  0  0  0  0  0
    0.6637  -23.3740    9.7960 C   0  0  0  0  0  0  0  0  0  0  0  0
    0.5468  -24.3599   10.7754 C   0  0  0  0  0  0  0  0  0  0  0  0
   -0.3222  -24.1944   11.8499 C   0  0  0  0  0  0  0  0  0  0  0  0
   -0.4294  -25.1822   12.8211 C   0  0  0  0  0  0  0  0  0  0  0  0
    0.3346  -26.3379   12.7207 C   0  0  0  0  0  0  0  0  0  0  0  0
    1.2045  -26.5056   11.6497 C   0  0  0  0  0  0  0  0  0  0  0  0
    1.9685  -27.6621   11.5500 C   0  0  0  0  0  0  0  0  0  0  0  0
    2.8395  -27.8309   10.4806 C   0  0  0  0  0  0  0  0  0  0  0  0
    2.9470  -26.8429    9.5081 C   0  0  0  0  0  0  0  0  0  0  0  0
    2.1829  -25.6864    9.6078 C   0  0  0  0  0  0  0  0  0  0  0  0
    1.3116  -25.5170   10.6780 C   0  0  0  0  0  0  0  0  0  0  0  0
   -0.2679  -17.6695    9.0107 C   0  0  0  0  0  0  0  0  0  0  0  0
   -1.4956  -17.6483    8.9184 O   0  0  0  0  0  0  0  0  0  0  0  0
    0.4491  -16.6825    9.5776 N   0  0  0  0  0  0  0  0  0  0  0  0
   -0.1875  -15.4829   10.1595 C   0  0  0  0  0  0  0  0  0  0  0  0
    0.8280  -14.7627   11.0713 C   0  0  0  0  0  0  0  0  0  0  0  0
    0.1920  -13.5348   11.7841 C   0  0  0  0  0  0  0  0  0  0  0  0
    1.1714  -13.0039   12.8417 C   0  0  0  0  0  0  0  0  0  0  0  0
    0.7541  -11.7115   13.4206 N   0  0  0  0  0  0  0  0  0  0  0  0
    1.1433  -10.5102   12.9416 C   0  0  0  0  0  0  0  0  0  0  0  0
    1.9277  -10.4607   11.8423 N   0  0  0  0  0  0  0  0  0  0  0  0
    0.7333   -9.3653   13.5532 N   0  0  0  0  0  0  0  0  0  0  0  0
   -0.7195  -14.5539    9.0343 C   0  0  0  0  0  0  0  0  0  0  0  0
   -1.8005  -13.9752    9.1668 O   0  0  0  0  0  0  0  0  0  0  0  0
    0.0666  -14.4045    7.9411 N   0  0  0  0  0  0  0  0  0  0  0  0
   -0.3135  -13.5425    6.7977 C   0  0  0  0  0  0  0  0  0  0  0  0
    0.5583  -12.2648    6.7954 C   0  0  0  0  0  0  0  0  0  0  0  0
    0.4593  -11.5227    8.1561 C   0  0  0  0  0  0  0  0  0  0  0  0
   -0.8639  -10.7419    8.2213 C   0  0  0  0  0  0  0  0  0  0  0  0
   -0.9977   -9.9471    9.4609 N   0  0  0  0  0  0  0  0  0  0  0  0
   -1.8546  -10.2677   10.4619 C   0  0  0  0  0  0  0  0  0  0  0  0
   -2.5951  -11.3825   10.3754 N   0  0  0  0  0  0  0  0  0  0  0  0
   -1.9880   -9.4731   11.5461 N   0  0  0  0  0  0  0  0  0  0  0  0
   -0.1926  -14.3491    5.4758 C   0  0  0  0  0  0  0  0  0  0  0  0
    0.6703  -15.2167    5.3439 O   0  0  0  0  0  0  0  0  0  0  0  0
   -1.1012  -14.0679    4.5247 N   0  0  0  0  0  0  0  0  0  0  0  0
   -1.1663  -14.7949    3.2345 C   0  0  0  0  0  0  0  0  0  0  0  0
   -2.5411  -15.4874    3.1727 C   0  0  0  0  0  0  0  0  0  0  0  0
   -2.7077  -16.5640    4.2664 C   0  0  0  0  0  0  0  0  0  0  0  0
   -2.6562  -17.9708    3.6320 C   0  0  0  0  0  0  0  0  0  0  0  0
   -2.9487  -19.0571    4.6837 C   0  0  0  0  0  0  0  0  0  0  0  0
   -2.4519  -20.3794    4.2521 N   0  0  0  0  0  0  0  0  0  0  0  0
   -1.0829  -13.8213    2.0447 C   0  0  0  0  0  0  0  0  0  0  0  0
   -1.5145  -12.6679    2.1460 O   0  0  0  0  0  0  0  0  0  0  0  0
   -0.5343  -14.3289    0.9151 N   0  0  0  0  0  0  0  0  0  0  0  0
   -0.4245  -13.5816   -0.3480 C   0  0  0  0  0  0  0  0  0  0  0  0
    0.3693  -14.3978   -1.3971 C   0  0  0  0  0  0  0  0  0  0  0  0
    1.8347  -14.5501   -0.9906 C   0  0  0  0  0  0  0  0  0  0  0  0
    2.6107  -15.4306   -2.0133 C   0  0  0  0  0  0  0  0  0  0  0  0
    4.1174  -15.2338   -1.7791 C   0  0  0  0  0  0  0  0  0  0  0  0
    4.9390  -16.3356   -2.3165 N   0  0  0  0  0  0  0  0  0  0  0  0
   -1.8628  -13.4094   -0.8443 C   0  0  0  0  0  0  0  0  0  0  0  0
   -2.6493  -14.3409   -0.7324 O   0  0  0  0  0  0  0  0  0  0  0  0
   -2.2057  -12.2080   -1.3466 N   0  0  0  0  0  0  0  0  0  0  0  0
   -3.5931  -11.8973   -1.7503 C   0  0  0  0  0  0  0  0  0  0  0  0
   -4.2217  -11.1915   -0.6548 C   0  0  0  0  0  0  0  0  0  0  0  0
   -4.4254   -9.8197   -0.7044 C   0  0  0  0  0  0  0  0  0  0  0  0
   -5.0151   -9.1038    0.3541 C   0  0  0  0  0  0  0  0  0  0  0  0
   -5.4430   -9.7535    1.5154 C   0  0  0  0  0  0  0  0  0  0  0  0
   -6.0480   -9.0478    2.5828 C   0  0  0  0  0  0  0  0  0  0  0  0
   -6.2340   -7.7254    2.4705 N   0  0  0  0  0  0  0  0  0  0  0  0
   -6.3863   -9.7079    3.7038 N   0  0  0  0  0  0  0  0  0  0  0  0
   -5.2463  -11.1351    1.5716 C   0  0  0  0  0  0  0  0  0  0  0  0
   -4.6412  -11.8440    0.5082 C   0  0  0  0  0  0  0  0  0  0  0  0
 12 13  1  0
 10 12  1  0
 12 14  1  0
 10 11  2  0
  9 10  1  0
 14 15  1  0
 15 16  2  0
 15 24  1  0
 16 17  1  0
 17 18  2  0
 24 19  2  0
 24 23  1  0
 19 18  1  0
 19 20  1  0
 23 22  2  0
 22 21  1  0
 20 21  2  0
  8  9  1  0
 25  8  1  0
  8  7  1  0
 25 26  2  0
 27 25  1  0
  7  6  1  0
  6  5  1  0
  5  4  1  0
  4  2  1  0
  2  1  2  0
  2  3  1  0
 28 27  1  0
 36 28  1  0
 28 29  1  0
 36 37  2  0
 38 36  1  0
 29 30  1  0
 30 31  1  0
 31 32  1  0
 32 33  1  0
 33 34  2  0
 33 35  1  0
 39 38  1  0
 47 39  1  0
 39 40  1  0
 47 48  2  0
 49 47  1  0
 40 41  1  0
 41 42  1  0
 42 43  1  0
 43 44  1  0
 44 46  1  0
 44 45  2  0
 56 57  2  0
 50 56  1  0
 56 58  1  0
 50 49  1  0
 51 50  1  0
 52 51  1  0
 53 54  1  0
 53 52  1  0
 54 55  1  0
 58 59  1  0
 59 65  1  0
 59 60  1  0
 65 66  2  0
 65 67  1  0
 60 61  1  0
 61 62  1  0
 62 63  1  0
 63 64  1  0
 67 68  1  0
 68 69  1  0
 69 70  2  0
 69 77  1  0
 70 71  1  0
 71 72  2  0
 72 73  1  0
 72 76  1  0
 73 75  1  0
 73 74  2  0
 76 77  2  0
M  CHG  3  13   1  55   1  64   1
M  END
$$$$
