
     RDKit          3D

 42 43  0  0  0  0  0  0  0  0999 V2000
   -0.4815    8.2684    9.2209 C   0  0  0  0  0  0  0  0  0  0  0  0
   -1.1334    6.8952    9.2140 C   0  0  0  0  0  0  0  0  0  0  0  0
   -1.3362    6.4332   10.5809 N   0  0  0  0  0  0  0  0  0  0  0  0
   -2.2449    5.5050   10.8802 C   0  0  0  0  0  0  0  0  0  0  0  0
   -2.9232    4.9338   10.0258 O   0  0  0  0  0  0  0  0  0  0  0  0
   -2.3820    5.1923   12.3638 C   0  0  0  0  0  0  0  0  0  0  0  0
   -1.3244    4.1756   12.8029 C   0  0  0  0  0  0  0  0  0  0  0  0
   -1.9734    2.8524   12.5439 C   0  0  0  0  0  0  0  0  0  0  0  0
   -3.4329    3.0524   12.8730 C   0  0  0  0  0  0  0  0  0  0  0  0
   -3.6388    4.4949   12.6463 N   0  0  0  0  0  0  0  0  0  0  0  0
   -4.7895    5.1607   12.6529 C   0  0  0  0  0  0  0  0  0  0  0  0
   -4.8539    6.3776   12.4699 O   0  0  0  0  0  0  0  0  0  0  0  0
   -6.0594    4.3495   12.9074 C   0  0  0  0  0  0  0  0  0  0  0  0
   -7.0762    5.1641   13.5665 N   0  0  0  0  0  0  0  0  0  0  0  0
   -6.5989    3.7700   11.5930 C   0  0  0  0  0  0  0  0  0  0  0  0
   -7.2444    4.7896   10.6939 C   0  0  0  0  0  0  0  0  0  0  0  0
   -6.4871    5.5208    9.7911 C   0  0  0  0  0  0  0  0  0  0  0  0
   -7.0831    6.4580    8.9626 C   0  0  0  0  0  0  0  0  0  0  0  0
   -8.4492    6.6687    9.0290 C   0  0  0  0  0  0  0  0  0  0  0  0
   -9.2123    5.9450    9.9217 C   0  0  0  0  0  0  0  0  0  0  0  0
   -8.6126    5.0106   10.7457 C   0  0  0  0  0  0  0  0  0  0  0  0
   -0.2898    5.9247    8.3900 C   0  0  0  0  0  0  0  0  0  0  0  0
    0.7318    5.4295    8.8753 O   0  0  0  0  0  0  0  0  0  0  0  0
   -0.7214    5.6768    7.1549 N   0  0  0  0  0  0  0  0  0  0  0  0
    0.0500    4.9282    6.1588 C   0  0  0  0  0  0  0  0  0  0  0  0
   -0.0554    5.6484    4.8126 C   0  0  0  0  0  0  0  0  0  0  0  0
   -1.0091    6.4001    4.5809 O   0  0  0  0  0  0  0  0  0  0  0  0
    0.9094    5.4338    3.9266 N   0  0  0  0  0  0  0  0  0  0  0  0
    0.8997    6.0677    2.6064 C   0  0  0  0  0  0  0  0  0  0  0  0
    1.0459    5.0505    1.4949 C   0  0  0  0  0  0  0  0  0  0  0  0
    1.2786    3.8578    1.7315 O   0  0  0  0  0  0  0  0  0  0  0  0
    0.9399    5.4267    0.3200 O   0  0  0  0  0  0  0  0  0  0  0  0
    1.9849    7.1623    2.4608 C   0  0  0  0  0  0  0  0  0  0  0  0
    1.7720    8.2676    3.4554 C   0  0  0  0  0  0  0  0  0  0  0  0
    3.3767    6.5591    2.5946 C   0  0  0  0  0  0  0  0  0  0  0  0
   -0.4539    3.4788    6.0358 C   0  0  0  0  0  0  0  0  0  0  0  0
   -0.1452    2.6931    7.3083 C   0  0  0  0  0  0  0  0  0  0  0  0
   -1.8704    3.5978    5.8184 O   0  0  0  0  0  0  0  0  0  0  0  0
   -2.7025    2.2826    5.3859 P   0  0  0  0  0  0  0  0  0  0  0  0
   -2.9449    1.3931    6.5493 O   0  0  0  0  0  0  0  0  0  0  0  0
   -4.0511    2.8684    4.8022 O   0  0  0  0  0  0  0  0  0  0  0  0
   -1.8687    1.5212    4.2698 O   0  0  0  0  0  0  0  0  0  0  0  0
 14 13  1  0
 13 11  1  0
 13 15  1  0
 11 12  2  0
 11 10  1  0
 15 16  1  0
 16 17  2  0
 16 21  1  0
 17 18  1  0
 21 20  2  0
 18 19  2  0
 20 19  1  0
 10  6  1  0
 10  9  1  0
  6  4  1  0
  6  7  1  0
  4  5  2  0
  4  3  1  0
  7  8  1  0
  8  9  1  0
  3  2  1  0
  2 22  1  0
  2  1  1  0
 22 23  2  0
 22 24  1  0
 24 25  1  0
 25 36  1  0
 25 26  1  0
 36 37  1  0
 36 38  1  0
 38 39  1  0
 39 41  1  0
 39 40  2  0
 39 42  1  0
 26 27  2  0
 26 28  1  0
 28 29  1  0
 29 30  1  0
 29 33  1  0
 30 31  2  0
 30 32  1  0
 33 34  1  0
 33 35  1  0
M  CHG  1  14   1
M  END
$$$$
