
     RDKit          3D

 58 59  0  0  0  0  0  0  0  0999 V2000
    1.8287  -10.3672   11.7252 N   0  0  0  0  0  0  0  0  0  0  0  0
    1.0827  -10.4222   12.8462 C   0  0  0  0  0  0  0  0  0  0  0  0
    0.6968   -9.2868   13.4743 N   0  0  0  0  0  0  0  0  0  0  0  0
    0.7350  -11.6226   13.3471 N   0  0  0  0  0  0  0  0  0  0  0  0
    1.1340  -12.9070   12.7461 C   0  0  0  0  0  0  0  0  0  0  0  0
    0.1057  -13.3970   11.7252 C   0  0  0  0  0  0  0  0  0  0  0  0
    0.6657  -14.6702   11.0455 C   0  0  0  0  0  0  0  0  0  0  0  0
   -0.3781  -15.3115   10.1239 C   0  0  0  0  0  0  0  0  0  0  0  0
    0.1625  -16.5879    9.5784 N   0  0  0  0  0  0  0  0  0  0  0  0
   -0.6620  -17.3990    8.7762 C   0  0  0  0  0  0  0  0  0  0  0  0
   -1.7910  -16.9774    8.5181 O   0  0  0  0  0  0  0  0  0  0  0  0
   -0.1803  -18.6036    8.2180 C   0  0  0  0  0  0  0  0  0  0  0  0
   -1.0393  -19.8372    8.5966 C   0  0  0  0  0  0  0  0  0  0  0  0
   -2.5396  -19.7154    8.2142 C   0  0  0  0  0  0  0  0  0  0  0  0
   -2.7508  -19.6730    6.8316 C   0  0  0  0  0  0  0  0  0  0  0  0
   -3.1689  -20.6628    6.2301 O   0  0  0  0  0  0  0  0  0  0  0  0
   -2.5507  -18.5010    6.0902 N   0  0  0  0  0  0  0  0  0  0  0  0
   -2.8116  -18.5880    4.6379 C   0  0  0  0  0  0  0  0  0  0  0  0
   -2.1348  -17.4635    3.8788 C   0  0  0  0  0  0  0  0  0  0  0  0
   -2.8570  -16.1832    4.1833 C   0  0  0  0  0  0  0  0  0  0  0  0
   -2.5117  -15.1949    3.1068 C   0  0  0  0  0  0  0  0  0  0  0  0
   -1.1171  -14.6267    3.2562 C   0  0  0  0  0  0  0  0  0  0  0  0
   -1.0047  -13.8094    2.1326 C   0  0  0  0  0  0  0  0  0  0  0  0
   -1.5303  -12.7039    2.1307 O   0  0  0  0  0  0  0  0  0  0  0  0
   -0.3940  -14.3457    1.0511 N   0  0  0  0  0  0  0  0  0  0  0  0
   -0.3008  -13.6383   -0.2393 C   0  0  0  0  0  0  0  0  0  0  0  0
    0.5089  -14.4298   -1.2846 C   0  0  0  0  0  0  0  0  0  0  0  0
    1.9799  -14.4880   -0.9150 C   0  0  0  0  0  0  0  0  0  0  0  0
    2.7386  -15.3861   -1.9114 C   0  0  0  0  0  0  0  0  0  0  0  0
    4.0689  -15.8063   -1.2633 C   0  0  0  0  0  0  0  0  0  0  0  0
    5.0709  -16.2255   -2.2579 N   0  0  0  0  0  0  0  0  0  0  0  0
   -1.7350  -13.4523   -0.7292 C   0  0  0  0  0  0  0  0  0  0  0  0
   -2.5181  -14.3812   -0.6090 O   0  0  0  0  0  0  0  0  0  0  0  0
   -2.0806  -12.2579   -1.2432 N   0  0  0  0  0  0  0  0  0  0  0  0
   -3.4707  -11.9858   -1.6604 C   0  0  0  0  0  0  0  0  0  0  0  0
   -4.1047  -11.2456   -0.6163 C   0  0  0  0  0  0  0  0  0  0  0  0
   -4.2675   -9.8637   -0.6853 C   0  0  0  0  0  0  0  0  0  0  0  0
   -4.8763   -9.1518    0.3622 C   0  0  0  0  0  0  0  0  0  0  0  0
   -5.3492   -9.7926    1.5072 C   0  0  0  0  0  0  0  0  0  0  0  0
   -5.9698   -9.0893    2.5728 C   0  0  0  0  0  0  0  0  0  0  0  0
   -6.1584   -7.7735    2.4682 N   0  0  0  0  0  0  0  0  0  0  0  0
   -6.3262   -9.7520    3.6797 N   0  0  0  0  0  0  0  0  0  0  0  0
   -5.1804  -11.1704    1.5694 C   0  0  0  0  0  0  0  0  0  0  0  0
   -4.5630  -11.8832    0.5318 C   0  0  0  0  0  0  0  0  0  0  0  0
   -1.0861  -13.8630    4.5326 N   0  0  0  0  0  0  0  0  0  0  0  0
   -0.2235  -14.1602    5.5984 C   0  0  0  0  0  0  0  0  0  0  0  0
    0.5915  -15.0760    5.4750 O   0  0  0  0  0  0  0  0  0  0  0  0
   -0.3055  -13.4309    6.7969 C   0  0  0  0  0  0  0  0  0  0  0  0
    0.6052  -12.1925    6.7813 C   0  0  0  0  0  0  0  0  0  0  0  0
    0.4522  -11.4125    8.1072 C   0  0  0  0  0  0  0  0  0  0  0  0
   -0.8654  -10.6078    8.1076 C   0  0  0  0  0  0  0  0  0  0  0  0
   -1.0093   -9.8228    9.3520 N   0  0  0  0  0  0  0  0  0  0  0  0
   -1.8300  -10.1445   10.3822 C   0  0  0  0  0  0  0  0  0  0  0  0
   -2.5854  -11.2488   10.3390 N   0  0  0  0  0  0  0  0  0  0  0  0
   -1.9176   -9.3453   11.4535 N   0  0  0  0  0  0  0  0  0  0  0  0
    0.0424  -14.3471    7.9197 N   0  0  0  0  0  0  0  0  0  0  0  0
   -0.7356  -14.4259    9.0870 C   0  0  0  0  0  0  0  0  0  0  0  0
   -1.7518  -13.7358    9.1677 O   0  0  0  0  0  0  0  0  0  0  0  0
  9  8  1  0
  9 10  1  0
  8 57  1  0
  8  7  1  0
 57 58  2  0
 57 56  1  0
  7  6  1  0
  6  5  1  0
  5  4  1  0
  4  2  1  0
  2  3  1  0
  2  1  2  0
 56 48  1  0
 48 46  1  0
 48 49  1  0
 46 47  2  0
 46 45  1  0
 49 50  1  0
 50 51  1  0
 51 52  1  0
 52 53  1  0
 53 54  2  0
 53 55  1  0
 45 22  1  0
 22 23  1  0
 22 21  1  0
 23 24  2  0
 23 25  1  0
 21 20  1  0
 20 19  1  0
 19 18  1  0
 18 17  1  0
 17 15  1  0
 25 26  1  0
 26 32  1  0
 26 27  1  0
 32 33  2  0
 32 34  1  0
 27 28  1  0
 28 29  1  0
 29 30  1  0
 30 31  1  0
 34 35  1  0
 35 36  1  0
 36 37  2  0
 36 44  1  0
 37 38  1  0
 38 39  2  0
 39 40  1  0
 39 43  1  0
 40 42  1  0
 40 41  2  0
 43 44  2  0
 10 12  1  0
 10 11  2  0
 12 13  1  0
 13 14  1  0
 14 15  1  0
 15 16  2  0
M  CHG  1  31   1
M  END
$$$$
