
     RDKit          3D

 77 79  0  0  0  0  0  0  0  0999 V2000
   -2.4754  -16.4120    1.9217 C   0  0  0  0  0  0  0  0  0  0  0  0
   -2.4655  -15.4845    3.1531 C   0  0  0  0  0  0  0  0  0  0  0  0
   -2.5601  -16.3633    4.4020 C   0  0  0  0  0  0  0  0  0  0  0  0
   -3.7112  -14.5845    3.0986 C   0  0  0  0  0  0  0  0  0  0  0  0
   -1.1620  -14.6327    3.1894 C   0  0  0  0  0  0  0  0  0  0  0  0
   -1.1513  -13.8570    4.4584 N   0  0  0  0  0  0  0  0  0  0  0  0
   -0.2833  -14.1486    5.5271 C   0  0  0  0  0  0  0  0  0  0  0  0
    0.5264  -15.0681    5.4037 O   0  0  0  0  0  0  0  0  0  0  0  0
   -0.3620  -13.4258    6.7297 C   0  0  0  0  0  0  0  0  0  0  0  0
    0.5683  -12.2017    6.7176 C   0  0  0  0  0  0  0  0  0  0  0  0
    0.4731  -11.4270    8.0489 C   0  0  0  0  0  0  0  0  0  0  0  0
   -0.8638  -10.6782    8.1248 C   0  0  0  0  0  0  0  0  0  0  0  0
   -0.9762   -9.9073    9.3820 N   0  0  0  0  0  0  0  0  0  0  0  0
   -1.8208  -10.1941   10.3947 C   0  0  0  0  0  0  0  0  0  0  0  0
   -2.6415  -11.2515   10.3238 N   0  0  0  0  0  0  0  0  0  0  0  0
   -1.8687   -9.3988   11.4798 N   0  0  0  0  0  0  0  0  0  0  0  0
   -0.0290  -14.3508    7.8506 N   0  0  0  0  0  0  0  0  0  0  0  0
   -0.8200  -14.4038    9.0112 C   0  0  0  0  0  0  0  0  0  0  0  0
   -1.8211  -13.6881    9.0775 O   0  0  0  0  0  0  0  0  0  0  0  0
   -0.4928  -15.2977   10.0539 C   0  0  0  0  0  0  0  0  0  0  0  0
    0.5468  -14.7076   11.0105 C   0  0  0  0  0  0  0  0  0  0  0  0
    0.0404  -13.4298   11.7261 C   0  0  0  0  0  0  0  0  0  0  0  0
    1.1436  -12.9631   12.6840 C   0  0  0  0  0  0  0  0  0  0  0  0
    0.8035  -11.6797   13.3324 N   0  0  0  0  0  0  0  0  0  0  0  0
    1.1615  -10.4770   12.8449 C   0  0  0  0  0  0  0  0  0  0  0  0
    1.8527  -10.4113   11.6877 N   0  0  0  0  0  0  0  0  0  0  0  0
    0.8331   -9.3459   13.5164 N   0  0  0  0  0  0  0  0  0  0  0  0
    0.0707  -16.5100    9.4318 N   0  0  0  0  0  0  0  0  0  0  0  0
   -0.7886  -17.4552    8.8736 C   0  0  0  0  0  0  0  0  0  0  0  0
   -2.0005  -17.2457    8.8901 O   0  0  0  0  0  0  0  0  0  0  0  0
   -0.2492  -18.5746    8.2413 C   0  0  0  0  0  0  0  0  0  0  0  0
   -1.2211  -19.6789    8.2693 N   0  0  0  0  0  0  0  0  0  0  0  0
    0.0678  -18.1379    6.8207 C   0  0  0  0  0  0  0  0  0  0  0  0
    0.7381  -19.2134    6.0214 C   0  0  0  0  0  0  0  0  0  0  0  0
    1.0282  -18.6388    4.6416 C   0  0  0  0  0  0  0  0  0  0  0  0
    2.4715  -18.8842    4.3737 C   0  0  0  0  0  0  0  0  0  0  0  0
    2.6802  -20.3281    4.5143 N   0  0  0  0  0  0  0  0  0  0  0  0
    3.8235  -20.8839    5.0863 C   0  0  0  0  0  0  0  0  0  0  0  0
    4.7389  -20.1585    5.4736 O   0  0  0  0  0  0  0  0  0  0  0  0
    3.9212  -22.2721    5.1171 C   0  0  0  0  0  0  0  0  0  0  0  0
    4.2632  -22.5911    3.8178 C   0  0  0  0  0  0  0  0  0  0  0  0
    3.2601  -22.7038    2.8618 C   0  0  0  0  0  0  0  0  0  0  0  0
    3.5801  -22.9880    1.5476 C   0  0  0  0  0  0  0  0  0  0  0  0
    4.9102  -23.1717    1.2003 C   0  0  0  0  0  0  0  0  0  0  0  0
    5.9192  -23.0388    2.1481 C   0  0  0  0  0  0  0  0  0  0  0  0
    5.5967  -22.7451    3.4660 C   0  0  0  0  0  0  0  0  0  0  0  0
    5.2116  -23.4232   -0.1225 C   0  0  0  0  0  0  0  0  0  0  0  0
    4.7760  -22.1483   -0.7516 N   0  0  0  0  0  0  0  0  0  0  0  0
    5.4635  -20.9388   -0.5184 C   0  0  0  0  0  0  0  0  0  0  0  0
    6.4808  -20.9261    0.1749 O   0  0  0  0  0  0  0  0  0  0  0  0
    4.9924  -19.7602   -1.0909 C   0  0  0  0  0  0  0  0  0  0  0  0
    6.1601  -18.8152   -1.3357 C   0  0  0  0  0  0  0  0  0  0  0  0
    6.3109  -17.8457   -0.2149 C   0  0  0  0  0  0  0  0  0  0  0  0
    5.3873  -16.8127   -0.3676 C   0  0  0  0  0  0  0  0  0  0  0  0
    4.9037  -16.2828    0.6327 O   0  0  0  0  0  0  0  0  0  0  0  0
    4.9928  -16.3516   -1.6514 N   0  0  0  0  0  0  0  0  0  0  0  0
    4.0287  -15.2177   -1.7210 C   0  0  0  0  0  0  0  0  0  0  0  0
    2.5443  -15.5717   -1.8347 C   0  0  0  0  0  0  0  0  0  0  0  0
    1.7962  -14.4620   -1.0627 C   0  0  0  0  0  0  0  0  0  0  0  0
    0.3594  -14.3249   -1.4908 C   0  0  0  0  0  0  0  0  0  0  0  0
   -0.4239  -13.5449   -0.4236 C   0  0  0  0  0  0  0  0  0  0  0  0
   -1.7525  -13.3688   -0.8363 C   0  0  0  0  0  0  0  0  0  0  0  0
   -2.5271  -14.3153   -0.7424 O   0  0  0  0  0  0  0  0  0  0  0  0
   -2.1161  -12.1557   -1.3078 N   0  0  0  0  0  0  0  0  0  0  0  0
   -3.5140  -11.8547   -1.7038 C   0  0  0  0  0  0  0  0  0  0  0  0
   -4.1418  -11.1652   -0.6247 C   0  0  0  0  0  0  0  0  0  0  0  0
   -4.7457  -11.8604    0.4172 C   0  0  0  0  0  0  0  0  0  0  0  0
   -5.3467  -11.1865    1.4850 C   0  0  0  0  0  0  0  0  0  0  0  0
   -5.3666   -9.7892    1.5455 C   0  0  0  0  0  0  0  0  0  0  0  0
   -5.9711   -9.1020    2.6231 C   0  0  0  0  0  0  0  0  0  0  0  0
   -6.1441   -7.7822    2.5395 N   0  0  0  0  0  0  0  0  0  0  0  0
   -6.2837   -9.7690    3.7422 N   0  0  0  0  0  0  0  0  0  0  0  0
   -4.7587   -9.0928    0.4952 C   0  0  0  0  0  0  0  0  0  0  0  0
   -4.1602   -9.7731   -0.5705 C   0  0  0  0  0  0  0  0  0  0  0  0
   -0.4717  -14.2776    0.8647 N   0  0  0  0  0  0  0  0  0  0  0  0
   -1.0792  -13.7993    2.0450 C   0  0  0  0  0  0  0  0  0  0  0  0
   -1.5181  -12.6504    2.0673 O   0  0  0  0  0  0  0  0  0  0  0  0
 31 32  1  0
 29 31  1  0
 31 33  1  0
 29 30  2  0
 28 29  1  0
 33 34  1  0
 34 35  1  0
 35 36  1  0
 36 37  1  0
 37 38  1  0
 20 28  1  0
 18 20  1  0
 20 21  1  0
 18 19  2  0
 17 18  1  0
 21 22  1  0
 22 23  1  0
 23 24  1  0
 24 25  1  0
 25 27  1  0
 25 26  2  0
  9 17  1  0
  7  9  1  0
  9 10  1  0
  7  8  2  0
  6  7  1  0
 10 11  1  0
 11 12  1  0
 12 13  1  0
 13 14  1  0
 14 16  1  0
 14 15  2  0
  5  6  1  0
  5  2  1  0
 76  5  1  0
  2  1  1  0
  2  3  1  0
  2  4  1  0
 76 77  2  0
 75 76  1  0
 61 75  1  0
 61 62  1  0
 60 61  1  0
 62 63  2  0
 62 64  1  0
 59 60  1  0
 58 59  1  0
 57 58  1  0
 56 57  1  0
 54 56  1  0
 64 65  1  0
 65 66  1  0
 66 67  2  0
 66 74  1  0
 67 68  1  0
 68 69  2  0
 69 70  1  0
 73 69  1  0
 70 72  1  0
 70 71  2  0
 74 73  2  0
 53 54  1  0
 54 55  2  0
 52 53  1  0
 51 52  1  0
 49 51  1  0
 49 50  2  0
 48 49  1  0
 47 48  1  0
 43 42  2  0
 42 41  1  0
 44 43  1  0
 44 45  2  0
 44 47  1  0
 45 46  1  0
 46 41  2  0
 38 40  1  0
 40 41  1  0
 38 39  2  0
M  CHG  1  32   1
M  END
$$$$
