
     RDKit          3D

 71 72  0  0  0  0  0  0  0  0999 V2000
    7.7193  -19.7295    5.7923 N   0  0  0  0  0  0  0  0  0  0  0  0
    6.6739  -19.3340    6.5259 C   0  0  0  0  0  0  0  0  0  0  0  0
    6.6745  -19.5433    7.8533 N   0  0  0  0  0  0  0  0  0  0  0  0
    5.6339  -18.7136    5.9414 N   0  0  0  0  0  0  0  0  0  0  0  0
    4.4609  -18.2266    6.6909 C   0  0  0  0  0  0  0  0  0  0  0  0
    3.1562  -18.6465    6.0083 C   0  0  0  0  0  0  0  0  0  0  0  0
    2.0377  -17.7066    6.4777 C   0  0  0  0  0  0  0  0  0  0  0  0
    1.2979  -18.3034    7.6782 C   0  0  0  0  0  0  0  0  0  0  0  0
    0.5106  -19.4824    7.2624 N   0  0  0  0  0  0  0  0  0  0  0  0
   -0.1332  -20.2893    8.2112 C   0  0  0  0  0  0  0  0  0  0  0  0
   -0.0302  -20.0322    9.4131 O   0  0  0  0  0  0  0  0  0  0  0  0
   -0.9141  -21.3512    7.7656 C   0  0  0  0  0  0  0  0  0  0  0  0
   -2.2993  -21.2754    8.4183 C   0  0  0  0  0  0  0  0  0  0  0  0
   -2.9817  -19.9301    8.1032 C   0  0  0  0  0  0  0  0  0  0  0  0
   -3.1938  -19.7963    6.7216 C   0  0  0  0  0  0  0  0  0  0  0  0
   -3.8357  -20.6392    6.0936 O   0  0  0  0  0  0  0  0  0  0  0  0
   -2.6926  -18.6817    6.0200 N   0  0  0  0  0  0  0  0  0  0  0  0
   -2.9574  -18.6233    4.5620 C   0  0  0  0  0  0  0  0  0  0  0  0
   -2.0744  -17.6141    3.8133 C   0  0  0  0  0  0  0  0  0  0  0  0
   -2.6590  -16.2352    3.9853 C   0  0  0  0  0  0  0  0  0  0  0  0
   -2.3165  -15.3361    2.7965 C   0  0  0  0  0  0  0  0  0  0  0  0
   -0.9745  -14.6260    2.9671 C   0  0  0  0  0  0  0  0  0  0  0  0
   -0.8647  -13.7685    1.8573 C   0  0  0  0  0  0  0  0  0  0  0  0
   -1.3479  -12.6401    1.9007 O   0  0  0  0  0  0  0  0  0  0  0  0
   -0.2733  -14.2696    0.7544 N   0  0  0  0  0  0  0  0  0  0  0  0
   -0.2140  -13.5140   -0.5120 C   0  0  0  0  0  0  0  0  0  0  0  0
    0.5656  -14.2598   -1.6022 C   0  0  0  0  0  0  0  0  0  0  0  0
    2.0407  -14.4738   -1.2366 C   0  0  0  0  0  0  0  0  0  0  0  0
    2.5912  -15.5662   -2.1681 C   0  0  0  0  0  0  0  0  0  0  0  0
    4.0350  -15.7734   -1.9605 N   0  0  0  0  0  0  0  0  0  0  0  0
    4.5251  -16.5254   -0.9632 C   0  0  0  0  0  0  0  0  0  0  0  0
    3.6849  -17.0976   -0.0898 N   0  0  0  0  0  0  0  0  0  0  0  0
    5.8504  -16.6875   -0.8225 N   0  0  0  0  0  0  0  0  0  0  0  0
   -1.6697  -13.3174   -0.9575 C   0  0  0  0  0  0  0  0  0  0  0  0
   -2.4375  -14.2702   -0.8974 O   0  0  0  0  0  0  0  0  0  0  0  0
   -2.0493  -12.0945   -1.3692 N   0  0  0  0  0  0  0  0  0  0  0  0
   -3.4557  -11.8159   -1.7470 C   0  0  0  0  0  0  0  0  0  0  0  0
   -4.0965  -11.1292   -0.6692 C   0  0  0  0  0  0  0  0  0  0  0  0
   -4.3118   -9.7532   -0.7051 C   0  0  0  0  0  0  0  0  0  0  0  0
   -4.9287   -9.0869    0.3622 C   0  0  0  0  0  0  0  0  0  0  0  0
   -5.3594   -9.7690    1.5036 C   0  0  0  0  0  0  0  0  0  0  0  0
   -5.9818   -9.0949    2.5839 C   0  0  0  0  0  0  0  0  0  0  0  0
   -6.1320   -7.7736    2.5241 N   0  0  0  0  0  0  0  0  0  0  0  0
   -6.3575   -9.7835    3.6618 N   0  0  0  0  0  0  0  0  0  0  0  0
   -5.1405  -11.1411    1.5372 C   0  0  0  0  0  0  0  0  0  0  0  0
   -4.5189  -11.8094    0.4714 C   0  0  0  0  0  0  0  0  0  0  0  0
   -1.0250  -13.8854    4.2616 N   0  0  0  0  0  0  0  0  0  0  0  0
   -0.0193  -14.0016    5.2369 C   0  0  0  0  0  0  0  0  0  0  0  0
    0.9405  -14.7388    5.0123 O   0  0  0  0  0  0  0  0  0  0  0  0
   -0.1268  -13.3165    6.4634 C   0  0  0  0  0  0  0  0  0  0  0  0
    0.6606  -11.9963    6.4152 C   0  0  0  0  0  0  0  0  0  0  0  0
    0.5584  -11.2599    7.7681 C   0  0  0  0  0  0  0  0  0  0  0  0
   -0.8394  -10.6249    7.9339 C   0  0  0  0  0  0  0  0  0  0  0  0
   -0.9766   -9.8994    9.2148 N   0  0  0  0  0  0  0  0  0  0  0  0
   -1.7734  -10.2827   10.2406 C   0  0  0  0  0  0  0  0  0  0  0  0
   -2.4891  -11.4143   10.1611 N   0  0  0  0  0  0  0  0  0  0  0  0
   -1.8815   -9.5184   11.3497 N   0  0  0  0  0  0  0  0  0  0  0  0
    0.3608  -14.2057    7.5575 N   0  0  0  0  0  0  0  0  0  0  0  0
   -0.3717  -14.4302    8.7406 C   0  0  0  0  0  0  0  0  0  0  0  0
   -1.4678  -13.8770    8.8878 O   0  0  0  0  0  0  0  0  0  0  0  0
    0.1375  -15.3062    9.7222 C   0  0  0  0  0  0  0  0  0  0  0  0
    1.0312  -14.5756   10.7311 C   0  0  0  0  0  0  0  0  0  0  0  0
    0.3127  -13.3754   11.4082 C   0  0  0  0  0  0  0  0  0  0  0  0
    1.0952  -13.0201   12.6772 C   0  0  0  0  0  0  0  0  0  0  0  0
    0.7210  -11.7217   13.2749 N   0  0  0  0  0  0  0  0  0  0  0  0
    1.0773  -10.5042   12.8081 C   0  0  0  0  0  0  0  0  0  0  0  0
    1.7966  -10.4039   11.6800 N   0  0  0  0  0  0  0  0  0  0  0  0
    0.7170   -9.3851   13.4851 N   0  0  0  0  0  0  0  0  0  0  0  0
    0.9498  -16.3831    9.0923 N   0  0  0  0  0  0  0  0  0  0  0  0
    0.4250  -17.3290    8.2106 C   0  0  0  0  0  0  0  0  0  0  0  0
   -0.7757  -17.2906    7.9096 O   0  0  0  0  0  0  0  0  0  0  0  0
  9  8  1  0
  9 10  1  0
  8 70  1  0
  8  7  1  0
 70 71  2  0
 70 69  1  0
  7  6  1  0
  6  5  1  0
  5  4  1  0
  4  2  1  0
  2  1  2  0
  2  3  1  0
 69 61  1  0
 61 59  1  0
 61 62  1  0
 59 60  2  0
 59 58  1  0
 62 63  1  0
 63 64  1  0
 64 65  1  0
 65 66  1  0
 66 68  1  0
 66 67  2  0
 58 50  1  0
 50 48  1  0
 50 51  1  0
 48 49  2  0
 48 47  1  0
 51 52  1  0
 52 53  1  0
 53 54  1  0
 54 55  1  0
 55 57  1  0
 55 56  2  0
 47 22  1  0
 22 23  1  0
 22 21  1  0
 23 24  2  0
 23 25  1  0
 21 20  1  0
 20 19  1  0
 19 18  1  0
 18 17  1  0
 17 15  1  0
 25 26  1  0
 26 34  1  0
 26 27  1  0
 34 35  2  0
 34 36  1  0
 27 28  1  0
 28 29  1  0
 29 30  1  0
 30 31  1  0
 31 33  1  0
 31 32  2  0
 36 37  1  0
 37 38  1  0
 38 39  2  0
 38 46  1  0
 39 40  1  0
 40 41  2  0
 41 42  1  0
 41 45  1  0
 42 44  1  0
 42 43  2  0
 45 46  2  0
 10 12  1  0
 10 11  2  0
 12 13  1  0
 13 14  1  0
 14 15  1  0
 15 16  2  0
M  END
$$$$
