
     RDKit          3D

 47 47  0  0  0  0  0  0  0  0999 V2000
   16.0345  -15.5194  -27.5135 C   0  0  0  0  0  0  0  0  0  0  0  0
   15.2211  -14.2202  -27.4769 C   0  0  0  0  0  0  0  0  0  0  0  0
   14.7357  -13.8764  -28.8088 N   0  0  0  0  0  0  0  0  0  0  0  0
   16.0622  -13.0832  -26.9089 C   0  0  0  0  0  0  0  0  0  0  0  0
   16.8357  -12.4560  -27.6309 O   0  0  0  0  0  0  0  0  0  0  0  0
   15.8971  -12.8100  -25.6185 N   0  0  0  0  0  0  0  0  0  0  0  0
   16.6910  -11.7876  -24.9625 C   0  0  0  0  0  0  0  0  0  0  0  0
   15.9749  -11.2642  -23.7192 C   0  0  0  0  0  0  0  0  0  0  0  0
   18.0517  -12.3430  -24.5678 C   0  0  0  0  0  0  0  0  0  0  0  0
   18.2145  -13.5460  -24.3449 O   0  0  0  0  0  0  0  0  0  0  0  0
   19.0332  -11.4516  -24.4790 N   0  0  0  0  0  0  0  0  0  0  0  0
   20.3623  -11.8033  -24.0021 C   0  0  0  0  0  0  0  0  0  0  0  0
   21.4159  -11.6373  -25.0987 C   0  0  0  0  0  0  0  0  0  0  0  0
   21.5291  -10.2103  -25.5825 C   0  0  0  0  0  0  0  0  0  0  0  0
   22.4925   -9.5367  -25.1738 O   0  0  0  0  0  0  0  0  0  0  0  0
   20.6385   -9.7498  -26.3376 O   0  0  0  0  0  0  0  0  0  0  0  0
   20.7227  -10.9422  -22.7960 C   0  0  0  0  0  0  0  0  0  0  0  0
   20.1430   -9.8759  -22.5701 O   0  0  0  0  0  0  0  0  0  0  0  0
   21.6956  -11.4240  -22.0267 N   0  0  0  0  0  0  0  0  0  0  0  0
   22.1869  -10.7541  -20.8325 C   0  0  0  0  0  0  0  0  0  0  0  0
   23.6855  -10.5308  -20.9659 C   0  0  0  0  0  0  0  0  0  0  0  0
   24.3904  -11.3176  -21.6044 O   0  0  0  0  0  0  0  0  0  0  0  0
   24.1736   -9.4506  -20.3584 N   0  0  0  0  0  0  0  0  0  0  0  0
   25.5920   -9.1184  -20.4183 C   0  0  0  0  0  0  0  0  0  0  0  0
   26.3386   -9.4330  -19.1283 C   0  0  0  0  0  0  0  0  0  0  0  0
   27.5190   -9.0969  -19.0197 O   0  0  0  0  0  0  0  0  0  0  0  0
   25.6875  -10.0625  -18.1509 N   0  0  0  0  0  0  0  0  0  0  0  0
   26.2893  -10.3292  -16.8543 C   0  0  0  0  0  0  0  0  0  0  0  0
   26.1565  -11.8084  -16.5073 C   0  0  0  0  0  0  0  0  0  0  0  0
   25.0847  -12.3955  -16.6935 O   0  0  0  0  0  0  0  0  0  0  0  0
   27.2303  -12.4405  -16.0047 N   0  0  0  0  0  0  0  0  0  0  0  0
   28.5565  -11.8495  -15.7515 C   0  0  0  0  0  0  0  0  0  0  0  0
   29.2580  -12.9145  -14.9497 C   0  0  0  0  0  0  0  0  0  0  0  0
   28.6612  -14.2026  -15.3894 C   0  0  0  0  0  0  0  0  0  0  0  0
   27.1902  -13.8668  -15.6558 C   0  0  0  0  0  0  0  0  0  0  0  0
   26.3358  -14.1532  -14.4232 C   0  0  0  0  0  0  0  0  0  0  0  0
   25.6521  -15.1782  -14.3924 O   0  0  0  0  0  0  0  0  0  0  0  0
   26.3483  -13.3531  -13.4853 O   0  0  0  0  0  0  0  0  0  0  0  0
   25.6270   -9.4732  -15.7615 C   0  0  0  0  0  0  0  0  0  0  0  0
   26.0245   -8.0158  -15.9133 C   0  0  0  0  0  0  0  0  0  0  0  0
   24.2004   -9.5762  -15.8641 O   0  0  0  0  0  0  0  0  0  0  0  0
   25.7831   -7.6377  -20.7701 C   0  0  0  0  0  0  0  0  0  0  0  0
   24.9216   -7.2580  -21.9602 C   0  0  0  0  0  0  0  0  0  0  0  0
   25.4183   -6.8242  -19.6458 O   0  0  0  0  0  0  0  0  0  0  0  0
   21.8931  -11.5770  -19.5702 C   0  0  0  0  0  0  0  0  0  0  0  0
   22.6233  -12.9343  -19.6165 C   0  0  0  0  0  0  0  0  0  0  0  0
   22.3303  -10.8585  -18.4120 O   0  0  0  0  0  0  0  0  0  0  0  0
  3  2  1  0
  2  4  1  0
  2  1  1  0
  4  5  2  0
  4  6  1  0
  6  7  1  0
  7  9  1  0
  7  8  1  0
  9 10  2  0
  9 11  1  0
 11 12  1  0
 12 17  1  0
 12 13  1  0
 17 18  2  0
 17 19  1  0
 13 14  1  0
 14 16  1  0
 14 15  2  0
 19 20  1  0
 20 21  1  0
 20 45  1  0
 21 22  2  0
 21 23  1  0
 45 47  1  0
 45 46  1  0
 23 24  1  0
 24 25  1  0
 24 42  1  0
 25 26  2  0
 25 27  1  0
 42 44  1  0
 42 43  1  0
 27 28  1  0
 28 29  1  0
 28 39  1  0
 29 30  2  0
 29 31  1  0
 39 41  1  0
 39 40  1  0
 31 35  1  0
 31 32  1  0
 35 36  1  0
 35 34  1  0
 36 37  2  0
 36 38  1  0
 34 33  1  0
 33 32  1  0
M  CHG  1   3   1
M  END
$$$$
