
     RDKit          3D

 16 17  0  0  0  0  0  0  0  0999 V2000
  -15.8369   -1.1486    6.2772 C   0  0  0  0  0  0  0  0  0  0  0  0
  -15.1227   -0.6516    7.5167 C   0  0  0  0  0  0  0  0  0  0  0  0
  -14.2247    0.3918    7.2009 C   0  0  0  0  0  0  0  0  0  0  0  0
  -12.9106    0.1463    6.7904 C   0  0  0  0  0  0  0  0  0  0  0  0
  -12.0502    1.2188    6.4965 C   0  0  0  0  0  0  0  0  0  0  0  0
  -12.5051    2.5410    6.6119 C   0  0  0  0  0  0  0  0  0  0  0  0
  -11.6752    3.6002    6.3258 O   0  0  0  0  0  0  0  0  0  0  0  0
  -13.8242    2.7801    7.0165 C   0  0  0  0  0  0  0  0  0  0  0  0
  -14.6731    1.7067    7.3094 C   0  0  0  0  0  0  0  0  0  0  0  0
  -14.4873   -1.7194    8.1589 C   0  0  0  0  0  0  0  0  0  0  0  0
  -14.3483   -1.6666    9.5369 C   0  0  0  0  0  0  0  0  0  0  0  0
  -13.7280   -2.7050   10.2106 C   0  0  0  0  0  0  0  0  0  0  0  0
  -13.2540   -3.8053    9.5151 C   0  0  0  0  0  0  0  0  0  0  0  0
  -12.6550   -4.7933   10.2020 O   0  0  0  0  0  0  0  0  0  0  0  0
  -13.3886   -3.8823    8.1330 C   0  0  0  0  0  0  0  0  0  0  0  0
  -14.0172   -2.8362    7.4597 C   0  0  0  0  0  0  0  0  0  0  0  0
  2  1  1  0
  4  5  2  0
  5  6  1  0
  9  8  1  0
  8  6  2  0
 11 12  2  0
 12 13  1  0
 16 15  1  0
 15 13  2  0
  3  4  1  0
  3  9  2  0
 10 11  1  0
 10 16  2  0
  6  7  1  0
 13 14  1  0
  2  3  1  0
 10  2  1  0
M  END
$$$$
