
     RDKit          3D

 10 10  0  0  0  0  0  0  0  0999 V2000
  -16.3973   -0.9066    6.7172 C   0  0  0  0  0  0  0  0  0  0  0  0
  -14.9927   -1.0425    7.3174 C   0  0  0  0  0  0  0  0  0  0  0  0
  -15.0833   -1.2364    8.8333 C   0  0  0  0  0  0  0  0  0  0  0  0
  -14.2185    0.0873    7.0420 C   0  0  0  0  0  0  0  0  0  0  0  0
  -12.9500   -0.0805    6.5021 C   0  0  0  0  0  0  0  0  0  0  0  0
  -12.1630    1.0255    6.2191 C   0  0  0  0  0  0  0  0  0  0  0  0
  -12.6273    2.3082    6.4753 C   0  0  0  0  0  0  0  0  0  0  0  0
  -11.8325    3.3814    6.1949 O   0  0  0  0  0  0  0  0  0  0  0  0
  -13.8976    2.4809    7.0185 C   0  0  0  0  0  0  0  0  0  0  0  0
  -14.6913    1.3711    7.3034 C   0  0  0  0  0  0  0  0  0  0  0  0
  2  1  1  0
  2  3  1  0
  5  6  1  0
  6  7  2  0
 10  9  2  0
  9  7  1  0
  4  5  2  0
  4 10  1  0
  7  8  1  0
  4  2  1  0
M  END
$$$$
