
     RDKit          3D

 11 11  0  0  0  0  0  0  0  0999 V2000
  -17.2438   -1.9763    6.4339 C   0  0  0  0  0  0  0  0  0  0  0  0
  -16.1849   -0.9120    6.2182 C   0  0  0  0  0  0  0  0  0  0  0  0
  -15.2710   -0.7971    7.4424 C   0  0  0  0  0  0  0  0  0  0  0  0
  -14.5407   -2.1277    7.6531 C   0  0  0  0  0  0  0  0  0  0  0  0
  -14.3655    0.2035    7.1273 C   0  0  0  0  0  0  0  0  0  0  0  0
  -13.1262   -0.1359    6.6036 C   0  0  0  0  0  0  0  0  0  0  0  0
  -12.2248    0.8555    6.2603 C   0  0  0  0  0  0  0  0  0  0  0  0
  -12.5639    2.1880    6.4316 C   0  0  0  0  0  0  0  0  0  0  0  0
  -11.6664    3.1490    6.0872 O   0  0  0  0  0  0  0  0  0  0  0  0
  -13.8091    2.5379    6.9512 C   0  0  0  0  0  0  0  0  0  0  0  0
  -14.7149    1.5428    7.2980 C   0  0  0  0  0  0  0  0  0  0  0  0
  1  2  1  0
  2  3  1  0
  3  4  1  0
  3  5  1  0
  5  6  2  0
  5 11  1  0
  6  7  1  0
  7  8  2  0
  8  9  1  0
  8 10  1  0
 10 11  2  0
M  END
$$$$
