
     RDKit          3D

 47 47  0  0  0  0  0  0  0  0999 V2000
   15.2362  -15.4606  -27.4079 C   0  0  0  0  0  0  0  0  0  0  0  0
   14.9590  -14.0791  -28.0064 C   0  0  0  0  0  0  0  0  0  0  0  0
   15.1792  -14.0909  -29.4471 N   0  0  0  0  0  0  0  0  0  0  0  0
   15.8333  -13.0281  -27.3311 C   0  0  0  0  0  0  0  0  0  0  0  0
   16.7252  -12.4513  -27.9555 O   0  0  0  0  0  0  0  0  0  0  0  0
   15.5688  -12.7798  -26.0530 N   0  0  0  0  0  0  0  0  0  0  0  0
   16.3628  -11.8307  -25.2906 C   0  0  0  0  0  0  0  0  0  0  0  0
   15.5693  -11.3042  -24.0945 C   0  0  0  0  0  0  0  0  0  0  0  0
   17.6569  -12.4783  -24.8143 C   0  0  0  0  0  0  0  0  0  0  0  0
   17.7370  -13.6958  -24.6239 O   0  0  0  0  0  0  0  0  0  0  0  0
   18.6796  -11.6482  -24.6230 N   0  0  0  0  0  0  0  0  0  0  0  0
   19.9874  -12.1118  -24.1893 C   0  0  0  0  0  0  0  0  0  0  0  0
   21.0330  -11.9627  -25.3027 C   0  0  0  0  0  0  0  0  0  0  0  0
   21.3562  -10.5126  -25.6076 C   0  0  0  0  0  0  0  0  0  0  0  0
   20.5684   -9.8643  -26.3265 O   0  0  0  0  0  0  0  0  0  0  0  0
   22.3972  -10.0202  -25.1245 O   0  0  0  0  0  0  0  0  0  0  0  0
   20.4230  -11.3382  -22.9526 C   0  0  0  0  0  0  0  0  0  0  0  0
   19.8524  -10.3020  -22.6017 O   0  0  0  0  0  0  0  0  0  0  0  0
   21.4553  -11.8599  -22.2906 N   0  0  0  0  0  0  0  0  0  0  0  0
   22.0397  -11.2361  -21.1138 C   0  0  0  0  0  0  0  0  0  0  0  0
   23.5520  -11.1648  -21.2758 C   0  0  0  0  0  0  0  0  0  0  0  0
   24.1482  -11.9411  -22.0273 O   0  0  0  0  0  0  0  0  0  0  0  0
   24.1659  -10.2155  -20.5727 N   0  0  0  0  0  0  0  0  0  0  0  0
   25.6142  -10.0623  -20.5531 C   0  0  0  0  0  0  0  0  0  0  0  0
   26.2343  -10.6256  -19.2805 C   0  0  0  0  0  0  0  0  0  0  0  0
   27.3917  -10.3248  -18.9732 O   0  0  0  0  0  0  0  0  0  0  0  0
   25.4950  -11.4545  -18.5571 N   0  0  0  0  0  0  0  0  0  0  0  0
   25.8106  -11.9429  -17.2223 C   0  0  0  0  0  0  0  0  0  0  0  0
   25.5615  -13.4517  -17.2137 C   0  0  0  0  0  0  0  0  0  0  0  0
   24.8221  -13.9432  -18.0768 O   0  0  0  0  0  0  0  0  0  0  0  0
   26.1884  -14.2418  -16.3132 N   0  0  0  0  0  0  0  0  0  0  0  0
   27.4397  -14.0432  -15.5573 C   0  0  0  0  0  0  0  0  0  0  0  0
   27.5183  -15.2571  -14.6817 C   0  0  0  0  0  0  0  0  0  0  0  0
   26.7948  -16.3355  -15.4066 C   0  0  0  0  0  0  0  0  0  0  0  0
   25.7067  -15.6271  -16.2265 C   0  0  0  0  0  0  0  0  0  0  0  0
   24.3468  -15.7253  -15.5441 C   0  0  0  0  0  0  0  0  0  0  0  0
   23.4284  -16.2986  -16.1275 O   0  0  0  0  0  0  0  0  0  0  0  0
   24.2043  -15.2288  -14.4277 O   0  0  0  0  0  0  0  0  0  0  0  0
   24.9337  -11.1888  -16.2127 C   0  0  0  0  0  0  0  0  0  0  0  0
   25.1192  -11.6748  -14.7881 C   0  0  0  0  0  0  0  0  0  0  0  0
   25.2281   -9.7862  -16.2743 O   0  0  0  0  0  0  0  0  0  0  0  0
   25.9954   -8.5872  -20.7169 C   0  0  0  0  0  0  0  0  0  0  0  0
   25.1085   -7.9182  -21.7603 C   0  0  0  0  0  0  0  0  0  0  0  0
   25.8454   -7.9055  -19.4664 O   0  0  0  0  0  0  0  0  0  0  0  0
   21.6869  -12.0081  -19.8297 C   0  0  0  0  0  0  0  0  0  0  0  0
   22.1996  -13.4431  -19.9062 C   0  0  0  0  0  0  0  0  0  0  0  0
   22.2709  -11.3537  -18.6964 O   0  0  0  0  0  0  0  0  0  0  0  0
  3  2  1  0
  2  4  1  0
  2  1  1  0
  4  5  2  0
  4  6  1  0
  6  7  1  0
  7  9  1  0
  7  8  1  0
  9 10  2  0
  9 11  1  0
 11 12  1  0
 12 17  1  0
 12 13  1  0
 17 18  2  0
 17 19  1  0
 13 14  1  0
 14 15  2  0
 14 16  1  0
 19 20  1  0
 20 21  1  0
 20 45  1  0
 21 22  2  0
 21 23  1  0
 45 47  1  0
 45 46  1  0
 23 24  1  0
 24 25  1  0
 24 42  1  0
 25 26  2  0
 25 27  1  0
 42 44  1  0
 42 43  1  0
 27 28  1  0
 28 29  1  0
 28 39  1  0
 29 30  2  0
 29 31  1  0
 39 41  1  0
 39 40  1  0
 31 35  1  0
 31 32  1  0
 35 36  1  0
 35 34  1  0
 36 38  1  0
 36 37  2  0
 34 33  1  0
 33 32  1  0
M  CHG  1   3   1
M  END
$$$$
