
     RDKit          3D

 26 29  0  0  0  0  0  0  0  0999 V2000
  -16.6693   14.5637   12.3077 C   0  0  0  0  0  0  0  0  0  0  0  0
  -16.4900   13.4306   13.3362 C   0  0  0  0  0  0  0  0  0  0  0  0
  -17.7217   13.0684   13.9690 C   0  0  0  0  0  0  0  0  0  0  0  0
  -18.5513   13.8680   14.6780 C   0  0  0  0  0  0  0  0  0  0  0  0
  -19.7083   13.3769   15.2953 C   0  0  0  0  0  0  0  0  0  0  0  0
  -20.0078   12.0131   15.1542 C   0  0  0  0  0  0  0  0  0  0  0  0
  -19.1518   11.1399   14.3988 C   0  0  0  0  0  0  0  0  0  0  0  0
  -19.6437    9.7638   14.3284 C   0  0  0  0  0  0  0  0  0  0  0  0
  -18.8664    8.8087   13.7429 N   0  0  0  0  0  0  0  0  0  0  0  0
  -20.8139    9.4813   14.7326 O   0  0  0  0  0  0  0  0  0  0  0  0
  -18.0032   11.7226   13.8304 C   0  0  0  0  0  0  0  0  0  0  0  0
  -16.9921   11.2567   13.1012 C   0  0  0  0  0  0  0  0  0  0  0  0
  -16.8849   10.0733   12.7953 O   0  0  0  0  0  0  0  0  0  0  0  0
  -16.0458   12.1731   12.7737 N   0  0  0  0  0  0  0  0  0  0  0  0
  -14.8328   11.6708   12.0264 C   0  0  0  0  0  0  0  0  0  0  0  0
  -13.5018   12.1977   12.5781 C   0  0  0  0  0  0  0  0  0  0  0  0
  -12.3350   11.5675   11.8529 C   0  0  0  0  0  0  0  0  0  0  0  0
  -12.4971   11.7840   10.4012 N   0  0  0  0  0  0  0  0  0  0  0  0
  -11.3206   11.5365    9.5434 C   0  0  0  0  0  0  0  0  0  0  0  0
  -10.6390   10.2125    9.8510 C   0  0  0  0  0  0  0  0  0  0  0  0
   -9.5289    9.9852    8.8098 C   0  0  0  0  0  0  0  0  0  0  0  0
   -8.3794   11.0033    9.0730 C   0  0  0  0  0  0  0  0  0  0  0  0
   -8.9784   12.4068    8.8142 C   0  0  0  0  0  0  0  0  0  0  0  0
  -10.3093   12.6763    9.6240 C   0  0  0  0  0  0  0  0  0  0  0  0
  -13.7350   11.2654    9.7936 C   0  0  0  0  0  0  0  0  0  0  0  0
  -14.9627   11.8250   10.5059 C   0  0  0  0  0  0  0  0  0  0  0  0
 12 11  1  0
 14 12  1  0
 12 13  2  0
  3 11  2  0
 11  7  1  0
  2  3  1  0
 14  2  1  0
  2  1  1  0
  3  4  1  0
  7  8  1  0
  7  6  2  0
 16 15  1  0
 15 14  1  0
 26 15  1  0
 17 16  1  0
 25 26  1  0
 18 17  1  0
 18 25  1  0
 20 21  1  0
 19 20  1  0
  8 10  2  0
  8  9  1  0
 21 22  1  0
 23 22  1  0
 24 23  1  0
 19 24  1  0
 19 18  1  0
  4  5  2  0
  6  5  1  0
M  CHG  1  18   1
M  END
$$$$
