
     RDKit          3D

 36 41  0  0  0  0  0  0  0  0999 V2000
    8.2343    8.8598   -1.8638 C   0  0  0  0  0  0  0  0  0  0  0  0
    8.2217    9.0327   -3.2923 N   0  0  0  0  0  0  0  0  0  0  0  0
    7.4635    9.9300   -3.9028 C   0  0  0  0  0  0  0  0  0  0  0  0
    7.6778    9.8129   -5.2155 C   0  0  0  0  0  0  0  0  0  0  0  0
    8.5537    8.8087   -5.3973 C   0  0  0  0  0  0  0  0  0  0  0  0
    9.0841    8.3088   -6.5125 C   0  0  0  0  0  0  0  0  0  0  0  0
    9.9743    7.2580   -6.4114 C   0  0  0  0  0  0  0  0  0  0  0  0
   10.3502    6.7338   -5.1728 C   0  0  0  0  0  0  0  0  0  0  0  0
   11.2812    5.6352   -5.1085 C   0  0  0  0  0  0  0  0  0  0  0  0
   10.9206    4.4175   -4.4821 C   0  0  0  0  0  0  0  0  0  0  0  0
   11.7650    3.2914   -4.4312 C   0  0  0  0  0  0  0  0  0  0  0  0
   11.3500    2.2099   -3.7327 N   0  0  0  0  0  0  0  0  0  0  0  0
   11.4385    0.9281   -4.1490 C   0  0  0  0  0  0  0  0  0  0  0  0
   11.8925    0.5611   -5.4223 C   0  0  0  0  0  0  0  0  0  0  0  0
   11.9462   -0.7441   -5.8413 N   0  0  0  0  0  0  0  0  0  0  0  0
   11.5143   -1.7168   -4.9666 C   0  0  0  0  0  0  0  0  0  0  0  0
   11.0533   -1.3580   -3.6983 C   0  0  0  0  0  0  0  0  0  0  0  0
   10.9938   -0.0438   -3.2477 C   0  0  0  0  0  0  0  0  0  0  0  0
   10.5103    0.2586   -1.9376 C   0  0  0  0  0  0  0  0  0  0  0  0
   10.1112    1.3713   -1.6349 O   0  0  0  0  0  0  0  0  0  0  0  0
   10.5961   -0.6874   -0.9907 N   0  0  0  0  0  0  0  0  0  0  0  0
   10.1485   -0.4905    0.3723 C   0  0  0  0  0  0  0  0  0  0  0  0
    9.4939   -1.7788    0.8890 C   0  0  0  0  0  0  0  0  0  0  0  0
   10.4372   -2.3304    1.9506 C   0  0  0  0  0  0  0  0  0  0  0  0
   11.7090   -1.6902    1.6202 N   0  0  0  0  0  0  0  0  0  0  0  0
   12.7425   -1.7898    2.6814 C   0  0  0  0  0  0  0  0  0  0  0  0
   11.3432   -0.3071    1.2498 C   0  0  0  0  0  0  0  0  0  0  0  0
   13.0407    3.4043   -4.9862 C   0  0  0  0  0  0  0  0  0  0  0  0
   13.4023    4.5864   -5.6300 C   0  0  0  0  0  0  0  0  0  0  0  0
   14.6226    4.6654   -6.1897 N   0  0  0  0  0  0  0  0  0  0  0  0
   15.0802    5.7932   -6.8681 C   0  0  0  0  0  0  0  0  0  0  0  0
   14.2521    6.8950   -6.9161 C   0  0  0  0  0  0  0  0  0  0  0  0
   12.9890    6.8117   -6.3202 N   0  0  0  0  0  0  0  0  0  0  0  0
   12.5576    5.6877   -5.6988 C   0  0  0  0  0  0  0  0  0  0  0  0
    9.7744    7.3328   -4.0478 C   0  0  0  0  0  0  0  0  0  0  0  0
    8.9028    8.3312   -4.1850 C   0  0  0  0  0  0  0  0  0  0  0  0
 23 24  1  0
 23 22  1  0
 24 25  1  0
 25 26  1  0
 25 27  1  0
 27 22  1  0
 22 21  1  0
 21 19  1  0
 19 20  2  0
 19 18  1  0
 18 17  1  0
 18 13  2  0
 17 16  2  0
 16 15  1  0
 15 14  2  0
 14 13  1  0
 13 12  1  0
 12 11  1  0
 11 10  2  0
 11 28  1  0
 10  9  1  0
 28 29  2  0
 29 30  1  0
 29 34  1  0
 30 31  2  0
 31 32  1  0
 32 33  2  0
 33 34  1  0
 34  9  2  0
  9  8  1  0
  8 35  1  0
  8  7  2  0
 35 36  2  0
 36  2  1  0
 36  5  1  0
  2  1  1  0
  2  3  1  0
  3  4  2  0
  4  5  1  0
  5  6  2  0
  6  7  1  0
M  CHG  1  25   1
M  END
$$$$
