
     RDKit          3D

 38 43  0  0  0  0  0  0  0  0999 V2000
    8.5163    8.5165   -1.7939 C   0  0  0  0  0  0  0  0  0  0  0  0
    8.4669    8.7919   -3.2421 N   0  0  0  0  0  0  0  0  0  0  0  0
    7.7606    9.7577   -3.8249 C   0  0  0  0  0  0  0  0  0  0  0  0
    7.9712    9.6675   -5.1250 C   0  0  0  0  0  0  0  0  0  0  0  0
    8.7969    8.6372   -5.3549 C   0  0  0  0  0  0  0  0  0  0  0  0
    9.3130    8.1587   -6.4957 C   0  0  0  0  0  0  0  0  0  0  0  0
   10.1615    7.0668   -6.4544 C   0  0  0  0  0  0  0  0  0  0  0  0
   10.4713    6.4812   -5.2216 C   0  0  0  0  0  0  0  0  0  0  0  0
   11.3252    5.3641   -5.1095 C   0  0  0  0  0  0  0  0  0  0  0  0
   10.8842    4.2112   -4.4529 C   0  0  0  0  0  0  0  0  0  0  0  0
   11.6844    3.0651   -4.3180 C   0  0  0  0  0  0  0  0  0  0  0  0
   11.1632    2.0169   -3.6177 N   0  0  0  0  0  0  0  0  0  0  0  0
   11.4264    0.7376   -3.8908 C   0  0  0  0  0  0  0  0  0  0  0  0
   11.6715    0.3035   -5.1901 C   0  0  0  0  0  0  0  0  0  0  0  0
   11.9194   -1.0354   -5.4585 C   0  0  0  0  0  0  0  0  0  0  0  0
   11.9241   -1.9411   -4.4242 C   0  0  0  0  0  0  0  0  0  0  0  0
   11.6757   -1.5082   -3.1346 C   0  0  0  0  0  0  0  0  0  0  0  0
   11.4213   -0.1838   -2.8424 C   0  0  0  0  0  0  0  0  0  0  0  0
   11.1537    0.1801   -1.1263 S   0  0  0  0  0  0  0  0  0  0  0  0
   10.5028   -1.0079   -0.4669 O   0  0  0  0  0  0  0  0  0  0  0  0
   10.1717    1.3246   -0.9861 O   0  0  0  0  0  0  0  0  0  0  0  0
   12.6193    0.5539   -0.3916 N   0  0  0  0  0  0  0  0  0  0  0  0
   13.3107    1.6969   -1.0467 C   0  0  0  0  0  0  0  0  0  0  0  0
   14.4239    2.2163   -0.3171 C   0  0  0  0  0  0  0  0  0  0  0  0
   15.4336    2.9177   -0.9831 C   0  0  0  0  0  0  0  0  0  0  0  0
   16.5580    3.4463   -0.2998 N   0  0  0  0  0  0  0  0  0  0  0  0
   16.6920    3.2810    1.0799 C   0  0  0  0  0  0  0  0  0  0  0  0
   15.6802    2.5831    1.7611 N   0  0  0  0  0  0  0  0  0  0  0  0
   14.5592    2.0594    1.0710 C   0  0  0  0  0  0  0  0  0  0  0  0
   12.9864    3.1173   -4.8489 C   0  0  0  0  0  0  0  0  0  0  0  0
   13.4309    4.2854   -5.4971 C   0  0  0  0  0  0  0  0  0  0  0  0
   14.6688    4.3425   -6.0227 N   0  0  0  0  0  0  0  0  0  0  0  0
   15.1405    5.4881   -6.6813 C   0  0  0  0  0  0  0  0  0  0  0  0
   14.3192    6.5987   -6.8005 C   0  0  0  0  0  0  0  0  0  0  0  0
   13.0387    6.5210   -6.2562 N   0  0  0  0  0  0  0  0  0  0  0  0
   12.6034    5.3991   -5.6353 C   0  0  0  0  0  0  0  0  0  0  0  0
    9.9121    7.0393   -4.0792 C   0  0  0  0  0  0  0  0  0  0  0  0
    9.1006    8.0889   -4.1764 C   0  0  0  0  0  0  0  0  0  0  0  0
 37 38  2  0
 37  8  1  0
 38  2  1  0
 38  5  1  0
  2  1  1  0
  2  3  1  0
  3  4  2  0
  4  5  1  0
  5  6  2  0
  6  7  1  0
  7  8  2  0
  8  9  1  0
  9 10  2  0
  9 36  1  0
 10 11  1  0
 36 35  2  0
 36 31  1  0
 35 34  1  0
 34 33  2  0
 33 32  1  0
 32 31  2  0
 31 30  1  0
 30 11  2  0
 11 12  1  0
 12 13  1  0
 13 14  2  0
 13 18  1  0
 14 15  1  0
 15 16  2  0
 16 17  1  0
 17 18  2  0
 18 19  1  0
 19 20  2  0
 19 21  2  0
 19 22  1  0
 22 23  1  0
 23 24  1  0
 24 25  2  0
 24 29  1  0
 25 26  1  0
 26 27  2  0
 27 28  1  0
 28 29  2  0
M  END
$$$$
