
     RDKit          3D

 26 27  0  0  0  0  0  0  0  0999 V2000
   -5.9341   -2.0608    2.9115 C   0  0  0  0  0  0  0  0  0  0  0  0
   -5.8478   -1.3285    1.5934 C   0  0  0  0  0  0  0  0  0  0  0  0
   -6.7163   -0.5492    1.1659 O   0  0  0  0  0  0  0  0  0  0  0  0
   -4.7674   -1.5639    0.8499 N   0  0  0  0  0  0  0  0  0  0  0  0
   -4.5275   -0.7861   -0.3224 C   0  0  0  0  0  0  0  0  0  0  0  0
   -3.1574   -0.0731   -0.1716 C   0  0  0  0  0  0  0  0  0  0  0  0
   -3.4027    0.8734    0.8595 O   0  0  0  0  0  0  0  0  0  0  0  0
   -2.8710    0.7824   -1.2859 O   0  0  0  0  0  0  0  0  0  0  0  0
   -2.8232    0.0348   -2.5319 C   0  0  0  0  0  0  0  0  0  0  0  0
   -2.4611    0.9910   -3.6554 C   0  0  0  0  0  0  0  0  0  0  0  0
   -1.3681    1.6877   -3.1133 O   0  0  0  0  0  0  0  0  0  0  0  0
   -4.0712   -0.8507   -2.7688 C   0  0  0  0  0  0  0  0  0  0  0  0
   -3.8343   -1.6912   -3.9336 O   0  0  0  0  0  0  0  0  0  0  0  0
   -4.4341   -1.7178   -1.5205 C   0  0  0  0  0  0  0  0  0  0  0  0
   -5.6692   -2.4894   -1.6978 O   0  0  0  0  0  0  0  0  0  0  0  0
   -5.4861   -3.8200   -2.1515 C   0  0  0  0  0  0  0  0  0  0  0  0
   -5.5587   -3.8801   -3.5626 O   0  0  0  0  0  0  0  0  0  0  0  0
   -5.7125   -5.1769   -4.1420 C   0  0  0  0  0  0  0  0  0  0  0  0
   -5.3027   -5.2126   -5.5554 C   0  0  0  0  0  0  0  0  0  0  0  0
   -5.0304   -4.1017   -6.0130 O   0  0  0  0  0  0  0  0  0  0  0  0
   -5.2069   -6.2822   -6.2456 O   0  0  0  0  0  0  0  0  0  0  0  0
   -6.2192   -6.2018   -3.4352 C   0  0  0  0  0  0  0  0  0  0  0  0
   -6.4336   -6.0565   -1.9440 C   0  0  0  0  0  0  0  0  0  0  0  0
   -7.6723   -6.7314   -1.6743 O   0  0  0  0  0  0  0  0  0  0  0  0
   -6.6327   -4.5774   -1.5753 C   0  0  0  0  0  0  0  0  0  0  0  0
   -6.5440   -4.3645   -0.1682 O   0  0  0  0  0  0  0  0  0  0  0  0
 16 25  1  0
 16 17  1  0
 15 16  1  0
 25 23  1  0
 25 26  1  0
 23 22  1  0
 23 24  1  0
 18 22  2  0
 18 19  1  0
 17 18  1  0
 19 21  1  0
 19 20  2  0
  5  6  1  0
  6  7  1  0
  6  8  1  0
  5 14  1  0
  4  5  1  0
 14 12  1  0
 14 15  1  0
 12  9  1  0
 12 13  1  0
  9 10  1  0
  8  9  1  0
 10 11  1  0
  2  1  1  0
  2  4  1  0
  2  3  2  0
M  END
$$$$
