
     RDKit          3D

 23 24  0  0  0  0  0  0  0  0999 V2000
   -1.8600    3.9671   -1.7472 O   0  0  0  0  0  0  0  0  0  0  0  0
   -0.9695    3.8797   -0.5945 C   0  0  0  0  0  0  0  0  0  0  0  0
   -1.4786    2.8832    0.4411 C   0  0  0  0  0  0  0  0  0  0  0  0
   -1.4895    1.5933   -0.1523 O   0  0  0  0  0  0  0  0  0  0  0  0
   -2.0089    0.5862    0.7328 C   0  0  0  0  0  0  0  0  0  0  0  0
   -3.3962    0.8662    1.0313 O   0  0  0  0  0  0  0  0  0  0  0  0
   -4.2544    0.6645   -0.1275 C   0  0  0  0  0  0  0  0  0  0  0  0
   -4.2167   -0.7054   -0.5446 O   0  0  0  0  0  0  0  0  0  0  0  0
   -4.7666   -1.5781    0.4620 C   0  0  0  0  0  0  0  0  0  0  0  0
   -4.6954   -3.0019   -0.0684 C   0  0  0  0  0  0  0  0  0  0  0  0
   -3.5230   -3.5533    0.3199 O   0  0  0  0  0  0  0  0  0  0  0  0
   -6.2185   -1.2357    0.6928 C   0  0  0  0  0  0  0  0  0  0  0  0
   -6.7500   -2.1149    1.6779 O   0  0  0  0  0  0  0  0  0  0  0  0
   -6.3315    0.1904    1.1791 C   0  0  0  0  0  0  0  0  0  0  0  0
   -7.7267    0.5575    1.3291 O   0  0  0  0  0  0  0  0  0  0  0  0
   -5.6514    1.1178    0.1810 C   0  0  0  0  0  0  0  0  0  0  0  0
   -5.6719    2.4559    0.6699 O   0  0  0  0  0  0  0  0  0  0  0  0
   -1.2232    0.4958    2.0159 C   0  0  0  0  0  0  0  0  0  0  0  0
   -1.8119   -0.4147    2.9179 O   0  0  0  0  0  0  0  0  0  0  0  0
   -1.2286    1.8750    2.7097 C   0  0  0  0  0  0  0  0  0  0  0  0
   -0.3367    1.8878    3.8389 O   0  0  0  0  0  0  0  0  0  0  0  0
   -0.6445    2.8942    1.7087 C   0  0  0  0  0  0  0  0  0  0  0  0
   -0.5322    4.2097    2.3234 O   0  0  0  0  0  0  0  0  0  0  0  0
  5 18  1  0
  6  5  1  0
  5  4  1  0
 18 20  1  0
 18 19  1  0
 20 22  1  0
 20 21  1  0
  3 22  1  0
 22 23  1  0
  3  2  1  0
  4  3  1  0
  2  1  1  0
  7  6  1  0
  7 16  1  0
  8  7  1  0
 14 16  1  0
 16 17  1  0
 12 14  1  0
 14 15  1  0
  9 12  1  0
 12 13  1  0
 10  9  1  0
  9  8  1  0
 11 10  1  0
M  END
$$$$
