
     RDKit          3D

 23 24  0  0  0  0  0  0  0  0999 V2000
   -1.7210    4.0498   -1.7905 O   0  0  0  0  0  0  0  0  0  0  0  0
   -0.8585    3.8943   -0.6262 C   0  0  0  0  0  0  0  0  0  0  0  0
   -1.4967    3.0006    0.4141 C   0  0  0  0  0  0  0  0  0  0  0  0
   -1.6841    1.7153   -0.1752 O   0  0  0  0  0  0  0  0  0  0  0  0
   -2.2785    0.7321    0.6275 C   0  0  0  0  0  0  0  0  0  0  0  0
   -3.5822    1.1386    1.1026 O   0  0  0  0  0  0  0  0  0  0  0  0
   -4.5954    1.4214    0.0735 C   0  0  0  0  0  0  0  0  0  0  0  0
   -5.5375    0.2548   -0.1104 C   0  0  0  0  0  0  0  0  0  0  0  0
   -4.8258   -0.9167   -0.4616 O   0  0  0  0  0  0  0  0  0  0  0  0
   -5.5285   -2.0668    0.0294 C   0  0  0  0  0  0  0  0  0  0  0  0
   -5.8666   -2.8271   -1.1331 O   0  0  0  0  0  0  0  0  0  0  0  0
   -4.6465   -2.8868    0.9438 C   0  0  0  0  0  0  0  0  0  0  0  0
   -3.4891   -3.3598    0.2059 O   0  0  0  0  0  0  0  0  0  0  0  0
   -6.7544   -1.5146    0.7046 C   0  0  0  0  0  0  0  0  0  0  0  0
   -7.2097   -2.3283    1.7802 O   0  0  0  0  0  0  0  0  0  0  0  0
   -6.3455   -0.1176    1.1123 C   0  0  0  0  0  0  0  0  0  0  0  0
   -7.5050    0.7133    1.3189 O   0  0  0  0  0  0  0  0  0  0  0  0
   -1.4104    0.5118    1.8617 C   0  0  0  0  0  0  0  0  0  0  0  0
   -1.9750   -0.4381    2.7702 O   0  0  0  0  0  0  0  0  0  0  0  0
   -1.2616    1.8134    2.6544 C   0  0  0  0  0  0  0  0  0  0  0  0
   -0.3596    1.6929    3.7923 O   0  0  0  0  0  0  0  0  0  0  0  0
   -0.6641    2.8947    1.7435 C   0  0  0  0  0  0  0  0  0  0  0  0
   -0.5789    4.2108    2.3453 O   0  0  0  0  0  0  0  0  0  0  0  0
  5 18  1  0
  5  4  1  0
  6  5  1  0
 18 20  1  0
 18 19  1  0
 20 22  1  0
 20 21  1  0
  3 22  1  0
 22 23  1  0
  3  2  1  0
  4  3  1  0
  2  1  1  0
 10 11  1  0
 12 13  1  0
 10 12  1  0
  9 10  1  0
 14 10  1  0
  8  9  1  0
 14 15  1  0
 16 14  1  0
 16 17  1  0
  8 16  1  0
  7  8  1  0
  7  6  1  0
M  END
$$$$
