
     RDKit          3D

 23 24  0  0  0  0  0  0  0  0999 V2000
   -1.9276    4.0093   -1.7630 O   0  0  0  0  0  0  0  0  0  0  0  0
   -0.9902    3.8605   -0.6421 C   0  0  0  0  0  0  0  0  0  0  0  0
   -1.5048    2.9185    0.3973 C   0  0  0  0  0  0  0  0  0  0  0  0
   -1.4816    1.6106   -0.1891 O   0  0  0  0  0  0  0  0  0  0  0  0
   -2.0502    0.5821    0.6577 C   0  0  0  0  0  0  0  0  0  0  0  0
   -3.4164    0.7960    0.9180 O   0  0  0  0  0  0  0  0  0  0  0  0
   -4.2500    0.6124   -0.2219 C   0  0  0  0  0  0  0  0  0  0  0  0
   -4.2069   -0.7455   -0.5839 O   0  0  0  0  0  0  0  0  0  0  0  0
   -4.6926   -1.6427    0.4309 C   0  0  0  0  0  0  0  0  0  0  0  0
   -4.7066   -3.1452   -0.0171 C   0  0  0  0  0  0  0  0  0  0  0  0
   -3.3543   -3.4362   -0.0728 O   0  0  0  0  0  0  0  0  0  0  0  0
   -6.1163   -1.2692    0.7145 C   0  0  0  0  0  0  0  0  0  0  0  0
   -6.5562   -2.0591    1.7935 O   0  0  0  0  0  0  0  0  0  0  0  0
   -6.2395    0.1550    1.2032 C   0  0  0  0  0  0  0  0  0  0  0  0
   -7.6365    0.4986    1.3759 O   0  0  0  0  0  0  0  0  0  0  0  0
   -5.6206    1.0685    0.1631 C   0  0  0  0  0  0  0  0  0  0  0  0
   -5.6236    2.4081    0.6260 O   0  0  0  0  0  0  0  0  0  0  0  0
   -1.2324    0.5103    1.9668 C   0  0  0  0  0  0  0  0  0  0  0  0
   -1.8389   -0.4462    2.8753 O   0  0  0  0  0  0  0  0  0  0  0  0
   -1.1983    1.9178    2.6238 C   0  0  0  0  0  0  0  0  0  0  0  0
   -0.3485    1.8279    3.8182 O   0  0  0  0  0  0  0  0  0  0  0  0
   -0.6239    2.9415    1.6591 C   0  0  0  0  0  0  0  0  0  0  0  0
   -0.5945    4.2338    2.2717 O   0  0  0  0  0  0  0  0  0  0  0  0
  5 18  1  0
  6  5  1  0
  5  4  1  0
 18 20  1  0
 18 19  1  0
 20 22  1  0
 20 21  1  0
  3 22  1  0
 22 23  1  0
  3  2  1  0
  4  3  1  0
  2  1  1  0
  7  6  1  0
  7 16  1  0
  8  7  1  0
 14 16  1  0
 16 17  1  0
 12 14  1  0
 14 15  1  0
  9 12  1  0
 12 13  1  0
 10  9  1  0
  9  8  1  0
 11 10  1  0
M  END
$$$$
