
     RDKit          3D

 23 24  0  0  0  0  0  0  0  0999 V2000
   -1.7900    3.8045   -1.7952 O   0  0  0  0  0  0  0  0  0  0  0  0
   -0.8985    3.7035   -0.6414 C   0  0  0  0  0  0  0  0  0  0  0  0
   -1.4029    2.6877    0.4054 C   0  0  0  0  0  0  0  0  0  0  0  0
   -1.4171    1.3462   -0.1225 O   0  0  0  0  0  0  0  0  0  0  0  0
   -1.8131    0.3458    0.7803 C   0  0  0  0  0  0  0  0  0  0  0  0
   -3.2334    0.3039    1.0948 O   0  0  0  0  0  0  0  0  0  0  0  0
   -4.1181   -0.1717    0.0661 C   0  0  0  0  0  0  0  0  0  0  0  0
   -3.8311    0.5457   -1.2722 C   0  0  0  0  0  0  0  0  0  0  0  0
   -4.8256    0.1383   -2.1889 O   0  0  0  0  0  0  0  0  0  0  0  0
   -5.4285    0.1815    0.5447 O   0  0  0  0  0  0  0  0  0  0  0  0
   -6.1389   -0.9857    0.9671 C   0  0  0  0  0  0  0  0  0  0  0  0
   -6.9359   -0.6944    2.1862 C   0  0  0  0  0  0  0  0  0  0  0  0
   -7.8894    0.3696    1.9627 O   0  0  0  0  0  0  0  0  0  0  0  0
   -5.1073   -2.0965    1.1465 C   0  0  0  0  0  0  0  0  0  0  0  0
   -5.6976   -3.4079    1.1469 O   0  0  0  0  0  0  0  0  0  0  0  0
   -4.2050   -1.7189   -0.0438 C   0  0  0  0  0  0  0  0  0  0  0  0
   -2.9779   -2.4862   -0.0635 O   0  0  0  0  0  0  0  0  0  0  0  0
   -1.0159    0.4046    2.0676 C   0  0  0  0  0  0  0  0  0  0  0  0
   -1.5545   -0.4899    3.0210 O   0  0  0  0  0  0  0  0  0  0  0  0
   -1.0391    1.7988    2.6859 C   0  0  0  0  0  0  0  0  0  0  0  0
   -0.2614    1.8144    3.9113 O   0  0  0  0  0  0  0  0  0  0  0  0
   -0.5371    2.8120    1.6497 C   0  0  0  0  0  0  0  0  0  0  0  0
   -0.5890    4.1111    2.2256 O   0  0  0  0  0  0  0  0  0  0  0  0
  5 18  1  0
  6  5  1  0
  5  4  1  0
 18 20  1  0
 18 19  1  0
 20 22  1  0
 20 21  1  0
  3 22  1  0
 22 23  1  0
  3  2  1  0
  4  3  1  0
  2  1  1  0
  7  6  1  0
  7  8  1  0
  8  9  1  0
  7 16  1  0
 10  7  1  0
 14 16  1  0
 16 17  1  0
 11 14  1  0
 14 15  1  0
 12 11  1  0
 11 10  1  0
 13 12  1  0
M  END
$$$$
