
     RDKit          3D

 26 29  0  0  0  0  0  0  0  0999 V2000
   -3.5325   11.0440    6.4184 O   0  0  0  0  0  0  0  0  0  0  0  0
   -4.4660   10.9521    5.6071 C   0  0  0  0  0  0  0  0  0  0  0  0
   -5.6596   10.8050    5.9419 O   0  0  0  0  0  0  0  0  0  0  0  0
   -4.1080   10.9093    4.1756 C   0  0  0  0  0  0  0  0  0  0  0  0
   -5.0861   11.1154    3.1623 C   0  0  0  0  0  0  0  0  0  0  0  0
   -4.6560   11.0413    1.8077 C   0  0  0  0  0  0  0  0  0  0  0  0
   -3.3275   10.7326    1.4730 C   0  0  0  0  0  0  0  0  0  0  0  0
   -2.9670   10.6286    0.0539 C   0  0  0  0  0  0  0  0  0  0  0  0
   -1.9059   11.1205   -0.3771 O   0  0  0  0  0  0  0  0  0  0  0  0
   -3.7995    9.9110   -0.7435 N   0  0  0  0  0  0  0  0  0  0  0  0
   -5.0257    9.1837   -0.3476 C   0  0  0  0  0  0  0  0  0  0  0  0
   -6.2235    9.8105   -1.0613 C   0  0  0  0  0  0  0  0  0  0  0  0
   -5.8673   10.1718   -2.5078 C   0  0  0  0  0  0  0  0  0  0  0  0
   -4.6001   10.1232   -3.0022 C   0  0  0  0  0  0  0  0  0  0  0  0
   -4.3009   10.4263   -4.3947 C   0  0  0  0  0  0  0  0  0  0  0  0
   -3.1616   10.3819   -4.8172 O   0  0  0  0  0  0  0  0  0  0  0  0
   -5.3602   10.7750   -5.2016 O   0  0  0  0  0  0  0  0  0  0  0  0
   -6.6498   10.8458   -4.7452 C   0  0  0  0  0  0  0  0  0  0  0  0
   -7.6328   11.2057   -5.6740 C   0  0  0  0  0  0  0  0  0  0  0  0
   -8.9507   11.2792   -5.2262 C   0  0  0  0  0  0  0  0  0  0  0  0
   -9.2868   10.9639   -3.8969 C   0  0  0  0  0  0  0  0  0  0  0  0
   -8.3003   10.5997   -2.9480 C   0  0  0  0  0  0  0  0  0  0  0  0
   -6.9673   10.5372   -3.4041 C   0  0  0  0  0  0  0  0  0  0  0  0
   -3.4091    9.7894   -2.1814 C   0  0  0  0  0  0  0  0  0  0  0  0
   -2.3642   10.4967    2.4870 C   0  0  0  0  0  0  0  0  0  0  0  0
   -2.7761   10.5684    3.8314 C   0  0  0  0  0  0  0  0  0  0  0  0
  4  2  1  0
  2  3  1  0
  2  1  2  0
 13 23  1  0
 23 18  2  0
 23 22  1  0
 21 20  1  0
 22 21  2  0
 19 20  2  0
 18 19  1  0
  5  4  2  0
  6  5  1  0
  7 25  1  0
  8  7  1  0
  7  6  2  0
 25 26  2  0
 26  4  1  0
  8  9  2  0
 10  8  1  0
 13 12  1  0
 14 13  2  0
 12 11  1  0
 24 14  1  0
 14 15  1  0
 24 10  1  0
 11 10  1  0
 15 16  2  0
 15 17  1  0
 17 18  1  0
M  END
$$$$
