
     RDKit          3D

 30 32  0  0  0  0  0  0  0  0999 V2000
   13.5210    3.5991  -25.9682 N   0  0  0  0  0  0  0  0  0  0  0  0
   13.3941    4.8892  -26.5313 C   0  0  0  0  0  0  0  0  0  0  0  0
   13.3172    5.9691  -25.6925 N   0  0  0  0  0  0  0  0  0  0  0  0
   13.1915    7.2442  -26.2430 C   0  0  0  0  0  0  0  0  0  0  0  0
   13.1322    7.5612  -27.5618 N   0  0  0  0  0  0  0  0  0  0  0  0
   13.2082    6.4869  -28.4295 C   0  0  0  0  0  0  0  0  0  0  0  0
   13.3400    5.1275  -27.9645 C   0  0  0  0  0  0  0  0  0  0  0  0
   13.3910    4.2733  -29.0928 N   0  0  0  0  0  0  0  0  0  0  0  0
   13.2948    5.0764  -30.1822 C   0  0  0  0  0  0  0  0  0  0  0  0
   13.1819    6.4373  -29.8477 N   0  0  0  0  0  0  0  0  0  0  0  0
   13.0574    7.5593  -30.9055 C   0  0  0  0  0  0  0  0  0  0  0  0
   14.2691    7.7239  -31.9026 C   0  0  0  0  0  0  0  0  0  0  0  0
   13.8085    6.9804  -33.1867 C   0  0  0  0  0  0  0  0  0  0  0  0
   14.3180    7.5636  -34.3727 O   0  0  0  0  0  0  0  0  0  0  0  0
   12.3175    7.2121  -33.1190 C   0  0  0  0  0  0  0  0  0  0  0  0
   11.5770    6.0189  -33.9044 C   0  0  0  0  0  0  0  0  0  0  0  0
   11.7253    4.8463  -33.2390 O   0  0  0  0  0  0  0  0  0  0  0  0
   12.4262    3.3604  -34.1688 P   0  0  0  0  0  0  0  0  0  0  0  0
   11.9803    2.3160  -33.1855 O   0  0  0  0  0  0  0  0  0  0  0  0
   11.6240    3.4194  -35.4541 O   0  0  0  0  0  0  0  0  0  0  0  0
   13.9447    3.6634  -34.2838 O   0  0  0  0  0  0  0  0  0  0  0  0
   14.8267    4.3709  -35.7565 P   0  0  0  0  0  0  0  0  0  0  0  0
   15.8015    5.2280  -35.0007 O   0  0  0  0  0  0  0  0  0  0  0  0
   13.7434    5.1638  -36.4580 O   0  0  0  0  0  0  0  0  0  0  0  0
   15.4972    3.2696  -36.6437 O   0  0  0  0  0  0  0  0  0  0  0  0
   14.7109    1.7511  -37.3057 P   0  0  0  0  0  0  0  0  0  0  0  0
   13.2517    2.1277  -37.3996 O   0  0  0  0  0  0  0  0  0  0  0  0
   14.9902    0.6780  -36.2689 O   0  0  0  0  0  0  0  0  0  0  0  0
   15.2973    1.4149  -38.6655 O   0  0  0  0  0  0  0  0  0  0  0  0
   11.9562    7.2963  -31.7318 O   0  0  0  0  0  0  0  0  0  0  0  0
 26 28  1  0
 26 27  2  0
 26 29  1  0
 25 26  1  0
 22 23  2  0
 22 24  1  0
 22 25  1  0
 21 22  1  0
 18 19  2  0
 18 20  1  0
 18 21  1  0
 18 17  1  0
 17 16  1  0
 16 15  1  0
 15 30  1  0
 15 13  1  0
 30 11  1  0
 13 14  1  0
 13 12  1  0
 12 11  1  0
 11 10  1  0
 10  9  1  0
 10  6  1  0
  9  8  2  0
  8  7  1  0
  7  2  2  0
  7  6  1  0
  2  1  1  0
  2  3  1  0
  3  4  2  0
  4  5  1  0
  5  6  2  0
M  END
$$$$
