
     RDKit          3D

 34 37  0  0  0  0  0  0  0  0999 V2000
    2.4500   -3.0752   -5.4505 C   0  0  0  0  0  0  0  0  0  0  0  0
    1.1291   -3.4860   -4.7843 C   0  0  0  0  0  0  0  0  0  0  0  0
    0.1132   -4.1002   -5.7874 C   0  0  0  0  0  0  0  0  0  0  0  0
   -1.2532   -3.7866   -5.6859 C   0  0  0  0  0  0  0  0  0  0  0  0
   -2.2114   -4.3117   -6.5497 C   0  0  0  0  0  0  0  0  0  0  0  0
   -3.5833   -3.8363   -6.3160 N   0  0  0  0  0  0  0  0  0  0  0  0
   -4.8086   -4.2321   -7.0230 C   0  0  0  0  0  0  0  0  0  0  0  0
   -4.8629   -5.0244   -7.8918 O   0  0  0  0  0  0  0  0  0  0  0  0
   -6.0877   -3.4888   -6.5715 C   0  0  0  0  0  0  0  0  0  0  0  0
   -7.3650   -3.9728   -6.8525 C   0  0  0  0  0  0  0  0  0  0  0  0
   -8.4179   -3.2602   -6.4468 N   0  0  0  0  0  0  0  0  0  0  0  0
   -8.2753   -2.1084   -5.7849 C   0  0  0  0  0  0  0  0  0  0  0  0
   -9.3674   -1.3300   -5.3377 O   0  0  0  0  0  0  0  0  0  0  0  0
  -10.6354   -1.7391   -5.8269 C   0  0  0  0  0  0  0  0  0  0  0  0
  -10.7226   -1.5640   -7.1858 F   0  0  0  0  0  0  0  0  0  0  0  0
   -7.0074   -1.6397   -5.5131 C   0  0  0  0  0  0  0  0  0  0  0  0
   -5.9456   -2.3287   -5.9351 N   0  0  0  0  0  0  0  0  0  0  0  0
   -1.8228   -5.1440   -7.5822 C   0  0  0  0  0  0  0  0  0  0  0  0
   -0.4639   -5.4719   -7.7071 C   0  0  0  0  0  0  0  0  0  0  0  0
    0.4920   -4.9585   -6.8316 C   0  0  0  0  0  0  0  0  0  0  0  0
    1.7768   -5.3276   -7.0229 F   0  0  0  0  0  0  0  0  0  0  0  0
    0.6346   -2.2032   -4.2563 N   0  0  0  0  0  0  0  0  0  0  0  0
   -0.0356   -2.0102   -3.2206 C   0  0  0  0  0  0  0  0  0  0  0  0
   -0.3973   -0.6668   -2.8508 N   0  0  0  0  0  0  0  0  0  0  0  0
   -0.5749   -3.3235   -2.1289 S   0  0  0  0  0  0  0  0  0  0  0  0
    0.2645   -4.7977   -2.7415 C   0  0  0  0  0  0  0  0  0  0  0  0
    1.5284   -4.4196   -3.6061 C   0  0  0  0  0  0  0  0  0  0  0  0
    2.4974   -3.8659   -2.4679 C   0  0  0  0  0  0  0  0  0  0  0  0
    2.8817   -4.6884   -1.2291 C   0  0  0  0  0  0  0  0  0  0  0  0
    3.4284   -6.2459   -1.8655 S   0  0  0  0  0  0  0  0  0  0  0  0
    4.6659   -6.0032   -2.6204 O   0  0  0  0  0  0  0  0  0  0  0  0
    3.5775   -7.0923   -0.6759 O   0  0  0  0  0  0  0  0  0  0  0  0
    2.2637   -6.9688   -2.9986 C   0  0  0  0  0  0  0  0  0  0  0  0
    1.8663   -5.9124   -4.0392 C   0  0  0  0  0  0  0  0  0  0  0  0
  2  1  1  0
  2 27  1  0
  2 22  1  0
  3  2  1  0
 22 23  1  0
 23 24  2  0
 23 25  1  0
 27 26  1  0
 26 25  1  0
 27 28  1  0
 27 34  1  0
 28 29  1  0
 29 30  1  0
 30 31  2  0
 34 33  1  0
 33 30  1  0
 30 32  2  0
  6  5  1  0
  7  6  1  0
  4  3  2  0
  3 20  1  0
  5  4  1  0
  5 18  2  0
  9  7  1  0
  7  8  2  0
  9 10  2  0
 17  9  1  0
 16 12  1  0
 16 17  2  0
 20 21  1  0
 20 19  2  0
 19 18  1  0
 10 11  1  0
 11 12  2  0
 12 13  1  0
 13 14  1  0
 14 15  1  0
M  END
$$$$
