
     RDKit          3D

 34 37  0  0  0  0  0  0  0  0999 V2000
   -4.1562   -1.1515  -11.6653 C   0  0  0  0  0  0  0  0  0  0  0  0
   -5.4887   -1.0131  -10.8635 C   0  0  0  0  0  0  0  0  0  0  0  0
   -6.1307    0.3591  -11.2521 C   0  0  0  0  0  0  0  0  0  0  0  0
   -6.5620    1.2807  -10.2727 C   0  0  0  0  0  0  0  0  0  0  0  0
   -7.1522    2.5172  -10.5567 C   0  0  0  0  0  0  0  0  0  0  0  0
   -7.4952    3.3311   -9.4556 N   0  0  0  0  0  0  0  0  0  0  0  0
   -8.2904    4.4401   -9.4372 C   0  0  0  0  0  0  0  0  0  0  0  0
   -8.8812    4.8873  -10.4049 O   0  0  0  0  0  0  0  0  0  0  0  0
   -8.4434    5.1352   -8.1407 C   0  0  0  0  0  0  0  0  0  0  0  0
   -9.2272    6.2964   -7.9980 C   0  0  0  0  0  0  0  0  0  0  0  0
   -9.3152    6.8744   -6.8082 N   0  0  0  0  0  0  0  0  0  0  0  0
   -8.6708    6.3834   -5.7381 C   0  0  0  0  0  0  0  0  0  0  0  0
   -8.7332    6.9434   -4.5070 O   0  0  0  0  0  0  0  0  0  0  0  0
   -9.4582    8.1508   -4.2716 C   0  0  0  0  0  0  0  0  0  0  0  0
   -8.6658    9.2576   -4.5938 F   0  0  0  0  0  0  0  0  0  0  0  0
   -7.8860    5.2358   -5.8859 C   0  0  0  0  0  0  0  0  0  0  0  0
   -7.7890    4.6551   -7.0680 N   0  0  0  0  0  0  0  0  0  0  0  0
   -7.2976    2.8771  -11.9040 C   0  0  0  0  0  0  0  0  0  0  0  0
   -6.8991    2.0112  -12.8954 C   0  0  0  0  0  0  0  0  0  0  0  0
   -6.3251    0.7846  -12.5938 C   0  0  0  0  0  0  0  0  0  0  0  0
   -5.9723    0.0471  -13.6678 F   0  0  0  0  0  0  0  0  0  0  0  0
   -5.0347   -0.9341   -9.4685 N   0  0  0  0  0  0  0  0  0  0  0  0
   -5.6186   -1.2480   -8.3596 C   0  0  0  0  0  0  0  0  0  0  0  0
   -4.9955   -1.0973   -7.1624 N   0  0  0  0  0  0  0  0  0  0  0  0
   -7.2450   -1.9040   -8.2760 S   0  0  0  0  0  0  0  0  0  0  0  0
   -7.6952   -2.0035  -10.0312 C   0  0  0  0  0  0  0  0  0  0  0  0
   -6.4724   -2.2463  -10.9871 C   0  0  0  0  0  0  0  0  0  0  0  0
   -5.7068   -3.5733  -10.6553 C   0  0  0  0  0  0  0  0  0  0  0  0
   -6.5335   -4.8566  -10.6284 C   0  0  0  0  0  0  0  0  0  0  0  0
   -7.1591   -5.1761  -12.2964 S   0  0  0  0  0  0  0  0  0  0  0  0
   -8.1356   -6.1990  -12.1920 O   0  0  0  0  0  0  0  0  0  0  0  0
   -6.0719   -5.3134  -13.2026 O   0  0  0  0  0  0  0  0  0  0  0  0
   -7.9935   -3.6156  -12.6649 C   0  0  0  0  0  0  0  0  0  0  0  0
   -7.0604   -2.4281  -12.4140 C   0  0  0  0  0  0  0  0  0  0  0  0
  2  1  1  0
  2 27  1  0
  2 22  1  0
  3  2  1  0
 22 23  1  0
 23 24  2  0
 23 25  1  0
 27 26  1  0
 26 25  1  0
 27 28  1  0
 27 34  1  0
 28 29  1  0
 29 30  1  0
 30 31  2  0
 34 33  1  0
 33 30  1  0
 30 32  2  0
  6  5  1  0
  7  6  1  0
  4  3  2  0
  3 20  1  0
  5  4  1  0
  5 18  2  0
  9  7  1  0
  7  8  2  0
  9 10  2  0
 17  9  1  0
 16 12  1  0
 16 17  2  0
 20 21  1  0
 20 19  2  0
 19 18  1  0
 10 11  1  0
 11 12  2  0
 12 13  1  0
 13 14  1  0
 14 15  1  0
M  END
$$$$
