
     RDKit          3D

 29 31  0  0  0  0  0  0  0  0999 V2000
    1.0216   -5.8218   -1.8085 C   0  0  0  0  0  0  0  0  0  0  0  0
    0.4437   -4.9008   -2.8826 C   0  0  0  0  0  0  0  0  0  0  0  0
   -0.3060   -3.4641   -2.1656 S   0  0  0  0  0  0  0  0  0  0  0  0
   -0.0659   -2.1328   -3.1699 C   0  0  0  0  0  0  0  0  0  0  0  0
   -0.4326   -0.9258   -2.7508 N   0  0  0  0  0  0  0  0  0  0  0  0
    0.4556   -2.2271   -4.3335 N   0  0  0  0  0  0  0  0  0  0  0  0
    1.0269   -3.4415   -4.9472 C   0  0  0  0  0  0  0  0  0  0  0  0
    2.1996   -2.9868   -5.8130 C   0  0  0  0  0  0  0  0  0  0  0  0
   -0.0128   -4.1440   -5.8018 C   0  0  0  0  0  0  0  0  0  0  0  0
   -1.3494   -3.7336   -5.7983 C   0  0  0  0  0  0  0  0  0  0  0  0
   -2.3133   -4.3804   -6.5612 C   0  0  0  0  0  0  0  0  0  0  0  0
   -3.5688   -3.8678   -6.4844 N   0  0  0  0  0  0  0  0  0  0  0  0
   -4.7183   -4.3494   -6.9811 C   0  0  0  0  0  0  0  0  0  0  0  0
   -4.8268   -5.3423   -7.6940 O   0  0  0  0  0  0  0  0  0  0  0  0
   -5.9461   -3.5862   -6.5848 C   0  0  0  0  0  0  0  0  0  0  0  0
   -7.2215   -4.1336   -6.7397 C   0  0  0  0  0  0  0  0  0  0  0  0
   -8.2784   -3.3998   -6.3642 N   0  0  0  0  0  0  0  0  0  0  0  0
   -8.1283   -2.1526   -5.8164 C   0  0  0  0  0  0  0  0  0  0  0  0
   -9.2053   -1.4024   -5.4161 O   0  0  0  0  0  0  0  0  0  0  0  0
  -10.5418   -1.7943   -5.7311 C   0  0  0  0  0  0  0  0  0  0  0  0
  -10.6943   -1.7203   -7.0940 F   0  0  0  0  0  0  0  0  0  0  0  0
   -6.8543   -1.6193   -5.6566 C   0  0  0  0  0  0  0  0  0  0  0  0
   -5.7993   -2.3418   -6.0524 N   0  0  0  0  0  0  0  0  0  0  0  0
   -1.9566   -5.4738   -7.3669 C   0  0  0  0  0  0  0  0  0  0  0  0
   -0.6439   -5.9538   -7.4123 C   0  0  0  0  0  0  0  0  0  0  0  0
    0.3335   -5.3259   -6.6532 C   0  0  0  0  0  0  0  0  0  0  0  0
    1.5884   -5.7747   -6.6965 F   0  0  0  0  0  0  0  0  0  0  0  0
    1.5165   -4.4279   -3.8729 C   0  0  0  0  0  0  0  0  0  0  0  0
    2.5075   -3.8032   -3.1783 F   0  0  0  0  0  0  0  0  0  0  0  0
  9  7  1  0
  7  6  1  0
  7 28  1  0
  7  8  1  0
 10  9  2  0
  9 26  1  0
 11 10  1  0
 11 24  2  0
 12 11  1  0
 13 15  1  0
 13 14  2  0
 13 12  1  0
 15 23  1  0
 15 16  2  0
 23 22  2  0
 22 18  1  0
 18 17  2  0
 17 16  1  0
 18 19  1  0
  6  4  1  0
 19 20  1  0
 20 21  1  0
 24 25  1  0
 25 26  2  0
 26 27  1  0
  4  3  1  0
  4  5  2  0
 28  2  1  0
  2  1  1  0
  2  3  1  0
 28 29  1  0
M  END
$$$$
