
     RDKit          3D

 35 39  0  0  0  0  0  0  0  0999 V2000
   -9.0427    9.7236   13.2436 C   0  0  0  0  0  0  0  0  0  0  0  0
  -10.0445    9.1858   12.4192 O   0  0  0  0  0  0  0  0  0  0  0  0
  -10.8705    8.2847   13.0907 C   0  0  0  0  0  0  0  0  0  0  0  0
  -10.6267    7.7428   14.2768 N   0  0  0  0  0  0  0  0  0  0  0  0
  -11.6435    6.9229   14.5894 N   0  0  0  0  0  0  0  0  0  0  0  0
  -12.5718    6.9147   13.6044 C   0  0  0  0  0  0  0  0  0  0  0  0
  -13.7511    6.2573   13.4931 N   0  0  0  0  0  0  0  0  0  0  0  0
  -14.5183    6.3955   12.4256 C   0  0  0  0  0  0  0  0  0  0  0  0
  -14.1200    7.2514   11.3936 C   0  0  0  0  0  0  0  0  0  0  0  0
  -14.9402    7.4636   10.1465 C   0  0  0  0  0  0  0  0  0  0  0  0
  -16.2897    7.2239    9.9694 C   0  0  0  0  0  0  0  0  0  0  0  0
  -16.5410    7.5684    8.7293 N   0  0  0  0  0  0  0  0  0  0  0  0
  -17.7906    7.5102    8.0165 C   0  0  0  0  0  0  0  0  0  0  0  0
  -18.8877    8.3248    8.2653 C   0  0  0  0  0  0  0  0  0  0  0  0
  -18.8334    9.2403    9.2882 F   0  0  0  0  0  0  0  0  0  0  0  0
  -20.0245    8.1849    7.4652 C   0  0  0  0  0  0  0  0  0  0  0  0
  -20.0438    7.2411    6.4309 C   0  0  0  0  0  0  0  0  0  0  0  0
  -18.9075    6.4650    6.2233 C   0  0  0  0  0  0  0  0  0  0  0  0
  -18.7340    5.4393    5.2338 N   0  0  0  0  0  0  0  0  0  0  0  0
  -19.9418    5.0950    4.1379 S   0  0  0  0  0  6  0  0  0  0  0  0
  -19.4770    4.1925    3.0889 O   0  0  0  0  0  0  0  0  0  0  0  0
  -20.3958    6.3144    3.4596 O   0  0  0  0  0  0  0  0  0  0  0  0
  -21.3250    4.3704    5.0545 C   0  0  0  0  0  0  0  0  0  0  0  0
  -21.1409    3.5349    6.1338 C   0  0  0  0  0  0  0  0  0  0  0  0
  -22.2462    3.0138    6.7994 C   0  0  0  0  0  0  0  0  0  0  0  0
  -23.5312    3.3395    6.3878 C   0  0  0  0  0  0  0  0  0  0  0  0
  -23.6820    4.1726    5.3104 C   0  0  0  0  0  0  0  0  0  0  0  0
  -25.4336    4.7023    4.6803 Br  0  0  0  0  0  0  0  0  0  0  0  0
  -22.5950    4.6915    4.6557 C   0  0  0  0  0  0  0  0  0  0  0  0
  -17.8071    6.6033    7.0072 C   0  0  0  0  0  0  0  0  0  0  0  0
  -16.7285    5.8071    6.7732 F   0  0  0  0  0  0  0  0  0  0  0  0
  -15.4143    7.9996    8.1201 N   0  0  0  0  0  0  0  0  0  0  0  0
  -14.4194    7.9378    9.0185 N   0  0  0  0  0  0  0  0  0  0  0  0
  -12.9234    7.9500   11.4791 C   0  0  0  0  0  0  0  0  0  0  0  0
  -12.1252    7.7749   12.6207 C   0  0  0  0  0  0  0  0  0  0  0  0
 14 16  2  0
 14 15  1  0
 13 14  1  0
 11 10  2  0
 10  9  1  0
 10 33  1  0
  9 34  2  0
 34 35  1  0
 35  3  2  0
  3  4  1  0
  3  2  1  0
  2  1  1  0
  9  8  1  0
  8  7  2  0
 27 28  1  0
 29 27  2  0
 27 26  1  0
 23 29  1  0
 20 23  1  0
 23 24  2  0
 20 19  1  0
 20 21  2  0
 20 22  2  0
 18 19  1  0
 18 17  2  0
 30 18  1  0
 16 17  1  0
 12 13  1  0
 13 30  2  0
 12 11  1  0
 12 32  1  0
 35  6  1  0
  6  5  2  0
  6  7  1  0
  5  4  1  0
 33 32  2  0
 30 31  1  0
 24 25  1  0
 25 26  2  0
M  END
$$$$
