
     RDKit          3D

 29 33  0  0  0  0  0  0  0  0999 V2000
    7.9222    2.0512    0.6550 C   0  0  0  0  0  0  0  0  0  0  0  0
    9.3996    2.2885    0.3752 C   0  0  0  0  0  0  0  0  0  0  0  0
   10.3989    2.1729    1.2377 N   0  0  0  0  0  0  0  0  0  0  0  0
   11.5662    2.4474    0.6139 N   0  0  0  0  0  0  0  0  0  0  0  0
   11.2464    2.7548   -0.6576 C   0  0  0  0  0  0  0  0  0  0  0  0
    9.9344    2.6589   -0.8140 N   0  0  0  0  0  0  0  0  0  0  0  0
    9.2600    2.9151   -2.1298 C   0  0  0  0  0  0  0  0  0  0  0  0
    9.6236    4.1677   -2.8429 C   0  0  0  0  0  0  0  0  0  0  0  0
    8.9548    4.4901   -4.2116 C   0  0  0  0  0  0  0  0  0  0  0  0
    7.9221    3.5088   -4.8183 C   0  0  0  0  0  0  0  0  0  0  0  0
    7.2922    3.8624   -6.1721 C   0  0  0  0  0  0  0  0  0  0  0  0
    7.6159    4.9757   -6.9058 C   0  0  0  0  0  0  0  0  0  0  0  0
    6.8886    4.9721   -8.0208 N   0  0  0  0  0  0  0  0  0  0  0  0
    6.0886    3.8379   -8.0047 N   0  0  0  0  0  0  0  0  0  0  0  0
    5.1367    3.4859   -9.0440 C   0  0  0  0  0  0  0  0  0  0  0  0
    6.3372    3.1661   -6.8763 C   0  0  0  0  0  0  0  0  0  0  0  0
    7.5558    2.1990   -4.0611 C   0  0  0  0  0  0  0  0  0  0  0  0
    8.2259    1.8933   -2.7126 C   0  0  0  0  0  0  0  0  0  0  0  0
   10.6501    5.2002   -2.2861 C   0  0  0  0  0  0  0  0  0  0  0  0
   10.7701    6.3455   -3.1799 N   0  0  0  0  0  0  0  0  0  0  0  0
    9.7128    7.3338   -3.2487 C   0  0  0  0  0  0  0  0  0  0  0  0
    9.8488    8.5226   -4.1944 C   0  0  0  0  0  0  0  0  0  0  0  0
    8.7275    9.5499   -4.2601 C   0  0  0  0  0  0  0  0  0  0  0  0
    7.4948    9.3661   -3.3839 C   0  0  0  0  0  0  0  0  0  0  0  0
    6.1912   10.5570   -3.4641 Cl  0  0  0  0  0  0  0  0  0  0  0  0
    7.3493    8.1834   -2.4443 C   0  0  0  0  0  0  0  0  0  0  0  0
    8.4718    7.1567   -2.3788 C   0  0  0  0  0  0  0  0  0  0  0  0
   12.0650    4.6541   -2.0744 C   0  0  0  0  0  0  0  0  0  0  0  0
   12.1349    3.1568   -1.8512 C   0  0  0  0  0  0  0  0  0  0  0  0
 10 17  1  0
 18 17  1  0
  9 10  1  0
 10 11  1  0
  8  9  1  0
  8  7  2  0
 19  8  1  0
  7 18  1  0
  7  6  1  0
 19 28  1  0
 20 19  1  0
 28 29  1  0
 29  5  1  0
  5  6  1  0
  5  4  2  0
  2  1  1  0
  6  2  1  0
  2  3  2  0
 11 16  2  0
 11 12  1  0
 16 14  1  0
 12 13  2  0
 14 15  1  0
 21 22  2  0
 21 27  1  0
 21 20  1  0
 22 23  1  0
 23 24  2  0
 24 26  1  0
 24 25  1  0
 26 27  2  0
  4  3  1  0
 14 13  1  0
M  END
$$$$
