
     RDKit          3D

 30 31  0  0  0  0  0  0  0  0999 V2000
    7.9200    6.5549    2.7605 C   0  0  0  0  0  0  0  0  0  0  0  0
    6.7429    5.6359    3.0415 C   0  0  0  0  0  0  0  0  0  0  0  0
    6.9348    4.1747    2.5730 C   0  0  0  0  0  0  0  0  0  0  0  0
    6.9012    4.0203    1.0570 C   0  0  0  0  0  0  0  0  0  0  0  0
    5.8208    3.3803    3.1955 C   0  0  0  0  0  0  0  0  0  0  0  0
    5.1675    4.1514    3.9263 O   0  0  0  0  0  0  0  0  0  0  0  0
    5.5852    1.8840    2.8921 O   0  0  0  0  0  0  0  0  0  0  0  0
    5.1557    0.9944    3.9679 C   0  0  0  0  0  0  0  0  0  0  0  0
    3.8130    0.3221    3.6420 C   0  0  0  0  0  0  0  0  0  0  0  0
    3.7152   -1.1267    4.1205 C   0  0  0  0  0  0  0  0  0  0  0  0
    2.4305   -1.7925    3.6455 C   0  0  0  0  0  0  0  0  0  0  0  0
    4.8804   -1.8945    3.5553 C   0  0  0  0  0  0  0  0  0  0  0  0
    6.0982   -1.3908    3.7530 C   0  0  0  0  0  0  0  0  0  0  0  0
    7.2913   -2.1621    3.3074 C   0  0  0  0  0  0  0  0  0  0  0  0
    8.5149   -1.7619    3.6686 C   0  0  0  0  0  0  0  0  0  0  0  0
    8.6864   -0.6086    4.6467 C   0  0  0  0  0  0  0  0  0  0  0  0
    8.6380   -1.1493    6.0786 C   0  0  0  0  0  0  0  0  0  0  0  0
    7.6383    0.4870    4.3833 C   0  0  0  0  0  0  0  0  0  0  0  0
    7.7595    1.6517    5.3592 C   0  0  0  0  0  0  0  0  0  0  0  0
    9.0856    2.3867    5.1787 C   0  0  0  0  0  0  0  0  0  0  0  0
    9.2133    3.5283    6.1850 C   0  0  0  0  0  0  0  0  0  0  0  0
    8.9710    2.9904    7.4912 O   0  0  0  0  0  0  0  0  0  0  0  0
   10.6127    4.1479    6.1157 C   0  0  0  0  0  0  0  0  0  0  0  0
   10.7876    5.0756    4.9124 C   0  0  0  0  0  0  0  0  0  0  0  0
   10.0666    6.3017    5.0768 O   0  0  0  0  0  0  0  0  0  0  0  0
   12.2620    5.4194    4.7195 C   0  0  0  0  0  0  0  0  0  0  0  0
   12.8034    6.2069    5.8886 C   0  0  0  0  0  0  0  0  0  0  0  0
   14.0128    6.2462    6.0686 O   0  0  0  0  0  0  0  0  0  0  0  0
   11.9945    6.8638    6.7255 O   0  0  0  0  0  0  0  0  0  0  0  0
    6.2085   -0.0489    4.4435 C   0  0  0  0  0  0  0  0  0  0  0  0
 27 29  1  0
 24 25  1  0
 27 28  2  0
 21 22  1  0
  8  7  1  0
  7  5  1  0
 13 14  1  0
 15 14  2  0
 30 13  1  0
 13 12  2  0
 20 21  1  0
 21 23  1  0
 16 15  1  0
 18 30  1  0
 30  8  1  0
 26 27  1  0
 18 16  1  0
 16 17  1  0
 19 18  1  0
 23 24  1  0
 24 26  1  0
 12 10  1  0
  8  9  1  0
 20 19  1  0
  9 10  1  0
 10 11  1  0
  5  3  1  0
  5  6  2  0
  3  2  1  0
  3  4  1  0
  2  1  1  0
M  END
$$$$
