
     RDKit          3D

 17 18  0  0  0  0  0  0  0  0999 V2000
   -3.6393   -2.6643  -10.1108 C   0  0  0  0  0  0  0  0  0  0  0  0
   -4.7983   -3.3610  -10.8580 C   0  0  0  0  0  0  0  0  0  0  0  0
   -5.8022   -3.8900   -9.8824 C   0  0  0  0  0  0  0  0  0  0  0  0
   -5.4821   -4.6323   -8.9828 O   0  0  0  0  0  0  0  0  0  0  0  0
   -7.1232   -3.4079  -10.0940 N   0  0  0  0  0  0  0  0  0  0  0  0
   -8.2617   -3.6736   -9.3243 C   0  0  0  0  0  0  0  0  0  0  0  0
   -9.3949   -3.0012   -9.4359 N   0  0  0  0  0  0  0  0  0  0  0  0
  -10.2905   -3.3449   -8.3801 C   0  0  0  0  0  0  0  0  0  0  0  0
  -11.6182   -2.7065   -8.3912 C   0  0  0  0  0  0  0  0  0  0  0  0
  -12.6817   -3.1920   -7.6110 C   0  0  0  0  0  0  0  0  0  0  0  0
  -13.9030   -2.5155   -7.6018 C   0  0  0  0  0  0  0  0  0  0  0  0
  -14.0508   -1.3468   -8.3776 C   0  0  0  0  0  0  0  0  0  0  0  0
  -15.5499   -0.5093   -8.3899 Cl  0  0  0  0  0  0  0  0  0  0  0  0
  -13.0323   -0.8418   -9.1491 C   0  0  0  0  0  0  0  0  0  0  0  0
  -11.8104   -1.5103   -9.1534 C   0  0  0  0  0  0  0  0  0  0  0  0
   -9.8210   -4.2906   -7.5237 C   0  0  0  0  0  0  0  0  0  0  0  0
   -8.2275   -4.7917   -7.9396 S   0  0  0  0  0  0  0  0  0  0  0  0
  3  2  1  0
  2  1  1  0
  5  6  1  0
  6 17  1  0
  6  7  2  0
  8 16  2  0
  7  8  1  0
  8  9  1  0
 17 16  1  0
  3  4  2  0
  3  5  1  0
  9 10  2  0
  9 15  1  0
 10 11  1  0
 11 12  2  0
 12 13  1  0
 12 14  1  0
 14 15  2  0
M  END
$$$$
