
     RDKit          3D

 27 29  0  0  0  0  0  0  0  0999 V2000
    6.7211   -1.5723    0.4464 C   0  0  0  0  0  0  0  0  0  0  0  0
    7.1469   -0.2134    0.9455 C   0  0  0  0  0  0  0  0  0  0  0  0
    7.5305   -0.0670    2.0995 O   0  0  0  0  0  0  0  0  0  0  0  0
    7.0507    0.8097    0.0075 N   0  0  0  0  0  0  0  0  0  0  0  0
    7.4110    2.1919    0.3337 C   0  0  0  0  0  0  0  0  0  0  0  0
    8.8720    2.3710    0.1448 C   0  0  0  0  0  0  0  0  0  0  0  0
    9.6856    1.9433    1.1537 O   0  0  0  0  0  0  0  0  0  0  0  0
   11.0234    2.1682    0.7971 N   0  0  0  0  0  0  0  0  0  0  0  0
   10.9884    2.7257   -0.4164 C   0  0  0  0  0  0  0  0  0  0  0  0
   12.2269    3.1219   -1.1330 C   0  0  0  0  0  0  0  0  0  0  0  0
    9.6542    2.8700   -0.8689 C   0  0  0  0  0  0  0  0  0  0  0  0
    9.1517    3.4248   -2.1043 C   0  0  0  0  0  0  0  0  0  0  0  0
    8.2947    2.6971   -2.9347 C   0  0  0  0  0  0  0  0  0  0  0  0
    7.8255    3.2767   -4.1164 C   0  0  0  0  0  0  0  0  0  0  0  0
    8.2137    4.5738   -4.5017 C   0  0  0  0  0  0  0  0  0  0  0  0
    7.6571    5.1018   -5.7968 C   0  0  0  0  0  0  0  0  0  0  0  0
    9.0848    5.2893   -3.6531 C   0  0  0  0  0  0  0  0  0  0  0  0
    9.6834    6.9365   -4.0140 S   0  0  0  0  0  0  0  0  0  0  0  0
   10.2997    6.8598   -5.3221 O   0  0  0  0  0  0  0  0  0  0  0  0
   10.4652    7.3659   -2.8670 O   0  0  0  0  0  0  0  0  0  0  0  0
    8.2621    7.8534   -4.0615 N   0  0  0  0  0  0  0  0  0  0  0  0
    7.6783    8.3847   -2.8160 C   0  0  0  0  0  0  0  0  0  0  0  0
    7.8852    9.8978   -2.8065 C   0  0  0  0  0  0  0  0  0  0  0  0
    6.8650   10.3616   -3.8408 C   0  0  0  0  0  0  0  0  0  0  0  0
    5.6607    9.4461   -3.6523 C   0  0  0  0  0  0  0  0  0  0  0  0
    6.1628    8.2351   -2.8692 C   0  0  0  0  0  0  0  0  0  0  0  0
    9.5434    4.7147   -2.4621 C   0  0  0  0  0  0  0  0  0  0  0  0
 27 12  1  0
 27 17  2  0
 12 13  2  0
 12 11  1  0
 13 14  1  0
 14 15  2  0
 15 17  1  0
 15 16  1  0
 17 18  1  0
 11  6  2  0
 11  9  1  0
 18 19  2  0
 18 20  2  0
 18 21  1  0
 21 22  1  0
 22 23  1  0
 22 26  1  0
 23 24  1  0
 24 25  1  0
 25 26  1  0
  6  7  1  0
  6  5  1  0
  7  8  1  0
  8  9  2  0
  9 10  1  0
  5  4  1  0
  4  2  1  0
  2  3  2  0
  2  1  1  0
M  END
$$$$
