
     RDKit          3D

 24 27  0  0  0  0  0  0  0  0999 V2000
    7.9968    1.8466    0.4495 C   0  0  0  0  0  0  0  0  0  0  0  0
    9.3992    2.2511    0.2120 C   0  0  0  0  0  0  0  0  0  0  0  0
   10.3722    1.8678    1.0544 N   0  0  0  0  0  0  0  0  0  0  0  0
   11.5484    2.3966    0.5481 O   0  0  0  0  0  0  0  0  0  0  0  0
   11.2728    3.0924   -0.5868 C   0  0  0  0  0  0  0  0  0  0  0  0
   12.4138    3.7305   -1.2582 C   0  0  0  0  0  0  0  0  0  0  0  0
    9.9222    3.0290   -0.8419 C   0  0  0  0  0  0  0  0  0  0  0  0
    9.2865    3.6481   -1.9817 C   0  0  0  0  0  0  0  0  0  0  0  0
    9.4133    5.0166   -2.1813 C   0  0  0  0  0  0  0  0  0  0  0  0
    8.8037    5.6137   -3.2934 C   0  0  0  0  0  0  0  0  0  0  0  0
    8.9463    7.0476   -3.4665 C   0  0  0  0  0  0  0  0  0  0  0  0
    7.9932    8.0910   -3.3071 C   0  0  0  0  0  0  0  0  0  0  0  0
    6.5692    7.9797   -2.9027 C   0  0  0  0  0  0  0  0  0  0  0  0
    8.5368    9.2888   -3.5612 N   0  0  0  0  0  0  0  0  0  0  0  0
    9.8604    9.0369   -3.8993 O   0  0  0  0  0  0  0  0  0  0  0  0
   10.1027    7.6973   -3.8401 C   0  0  0  0  0  0  0  0  0  0  0  0
   11.4735    7.2619   -4.1739 C   0  0  0  0  0  0  0  0  0  0  0  0
    8.0562    4.8237   -4.2061 C   0  0  0  0  0  0  0  0  0  0  0  0
    7.4136    5.3535   -5.3538 C   0  0  0  0  0  0  0  0  0  0  0  0
    6.7021    4.5319   -6.2160 C   0  0  0  0  0  0  0  0  0  0  0  0
    6.6469    3.1900   -5.9113 C   0  0  0  0  0  0  0  0  0  0  0  0
    7.2397    2.6337   -4.8280 N   0  0  0  0  0  0  0  0  0  0  0  0
    7.9332    3.4338   -3.9970 C   0  0  0  0  0  0  0  0  0  0  0  0
    8.5515    2.8596   -2.8864 C   0  0  0  0  0  0  0  0  0  0  0  0
  9 10  2  0
  8  9  1  0
 24 23  1  0
 24  8  2  0
 23 18  2  0
 23 22  1  0
 18 10  1  0
 18 19  1  0
 10 11  1  0
  8  7  1  0
  7  5  2  0
  7  2  1  0
  5  4  1  0
  5  6  1  0
  4  3  1  0
  3  2  2  0
  2  1  1  0
 22 21  2  0
 21 20  1  0
 20 19  2  0
 11 16  2  0
 11 12  1  0
 16 15  1  0
 16 17  1  0
 15 14  1  0
 14 12  2  0
 12 13  1  0
M  END
$$$$
