
     RDKit          3D

 26 29  0  0  0  0  0  0  0  0999 V2000
  -22.5634  -11.2403   10.8281 C   0  0  0  0  0  0  0  0  0  0  0  0
  -22.7477  -12.7055   10.7829 C   0  0  0  0  0  0  0  0  0  0  0  0
  -23.9573  -13.2556   10.9846 N   0  0  0  0  0  0  0  0  0  0  0  0
  -23.7659  -14.6243   10.8629 O   0  0  0  0  0  0  0  0  0  0  0  0
  -22.4526  -14.8877   10.5918 C   0  0  0  0  0  0  0  0  0  0  0  0
  -22.0725  -16.3028   10.4315 C   0  0  0  0  0  0  0  0  0  0  0  0
  -21.7641  -13.6946   10.5319 C   0  0  0  0  0  0  0  0  0  0  0  0
  -20.3489  -13.5647   10.2749 C   0  0  0  0  0  0  0  0  0  0  0  0
  -19.4464  -14.3595   10.9755 C   0  0  0  0  0  0  0  0  0  0  0  0
  -18.0722  -14.2316   10.7302 C   0  0  0  0  0  0  0  0  0  0  0  0
  -16.9882  -15.3110   11.6556 S   0  0  0  0  0  0  0  0  0  0  0  0
  -16.1995  -16.0126   10.6726 O   0  0  0  0  0  0  0  0  0  0  0  0
  -17.7724  -16.0918   12.5867 O   0  0  0  0  0  0  0  0  0  0  0  0
  -15.9441  -14.2870   12.5130 N   0  0  0  0  0  0  0  0  0  0  0  0
  -16.4384  -13.3976   13.5791 C   0  0  0  0  0  0  0  0  0  0  0  0
  -15.4274  -13.3852   14.7310 C   0  0  0  0  0  0  0  0  0  0  0  0
  -15.2779  -11.9132   15.1317 C   0  0  0  0  0  0  0  0  0  0  0  0
  -16.3324  -11.1501   14.3383 C   0  0  0  0  0  0  0  0  0  0  0  0
  -16.4485  -11.9621   13.0582 C   0  0  0  0  0  0  0  0  0  0  0  0
  -17.5897  -13.2948    9.7650 C   0  0  0  0  0  0  0  0  0  0  0  0
  -16.2297  -13.0613    9.4205 C   0  0  0  0  0  0  0  0  0  0  0  0
  -15.8740  -12.1101    8.4629 C   0  0  0  0  0  0  0  0  0  0  0  0
  -16.8844  -11.3908    7.8585 C   0  0  0  0  0  0  0  0  0  0  0  0
  -18.1920  -11.5683    8.1492 N   0  0  0  0  0  0  0  0  0  0  0  0
  -18.5323  -12.4887    9.0710 C   0  0  0  0  0  0  0  0  0  0  0  0
  -19.8885  -12.6412    9.3344 C   0  0  0  0  0  0  0  0  0  0  0  0
 25 26  2  0
 25 20  1  0
 25 24  1  0
 26  8  1  0
  8  9  2  0
  8  7  1  0
  9 10  1  0
 10 20  2  0
 10 11  1  0
 20 21  1  0
  7  5  2  0
  7  2  1  0
 11 14  1  0
 11 12  2  0
 11 13  2  0
 14 15  1  0
  5  4  1  0
  5  6  1  0
  4  3  1  0
  3  2  2  0
  2  1  1  0
 15 16  1  0
 15 19  1  0
 16 17  1  0
 17 18  1  0
 18 19  1  0
 24 23  2  0
 23 22  1  0
 22 21  2  0
M  END
$$$$
