
     RDKit          3D

 12 11  0  0  0  0  0  0  0  0999 V2000
    8.5657    6.5676  -12.7657 C   0  0  0  0  0  0  0  0  0  0  0  0
    8.0658    5.1727  -13.1336 C   0  0  0  0  0  0  0  0  0  0  0  0
    9.1960    4.4310  -13.8553 C   0  0  0  0  0  0  0  0  0  0  0  0
    6.8174    5.1858  -14.0125 C   0  0  0  0  0  0  0  0  0  0  0  0
    6.8102    6.2458  -15.0988 C   0  0  0  0  0  0  0  0  0  0  0  0
    6.4514    7.5791  -14.5576 N   0  0  0  0  0  0  0  0  0  0  0  0
    5.7884    5.8400  -16.1125 C   0  0  0  0  0  0  0  0  0  0  0  0
    5.2006    6.6732  -16.7847 O   0  0  0  0  0  0  0  0  0  0  0  0
    5.4960    4.5548  -16.2829 O   0  0  0  0  0  0  0  0  0  0  0  0
    7.6021    4.4378  -11.8682 C   0  0  0  0  0  0  0  0  0  0  0  0
    7.5629    3.1187  -12.2218 F   0  0  0  0  0  0  0  0  0  0  0  0
    8.3843    4.6527  -10.7561 F   0  0  0  0  0  0  0  0  0  0  0  0
  8  7  2  0
  7  9  1  0
  7  5  1  0
  5  6  1  0
  5  4  1  0
  4  2  1  0
  2  1  1  0
  2  3  1  0
  2 10  1  0
 10 11  1  0
 10 12  1  0
M  CHG  1   6   1
M  END
$$$$
