
     RDKit          3D

 19 20  0  0  0  0  0  0  0  0999 V2000
    8.9227    9.1392   -1.0317 N   0  0  0  0  0  0  0  0  0  0  0  0
    8.2372    8.5931   -1.7572 N   0  0  0  0  0  0  0  0  0  0  0  0
    7.5035    8.0675   -2.4427 N   0  0  0  0  0  0  0  0  0  0  0  0
    7.8762    7.1172   -3.4973 C   0  0  2  0  0  0  0  0  0  0  0  0
    6.7740    6.3967   -4.2923 C   0  0  2  0  0  0  0  0  0  0  0  0
    5.4898    6.5710   -3.6836 O   0  0  0  0  0  0  0  0  0  0  0  0
    7.2402    4.9425   -4.1190 C   0  0  1  0  0  0  0  0  0  0  0  0
    6.8089    4.1275   -5.3530 C   0  0  0  0  0  0  0  0  0  0  0  0
    6.4366    2.7994   -4.9469 O   0  0  0  0  0  0  0  0  0  0  0  0
    8.6814    4.9509   -3.9002 O   0  0  0  0  0  0  0  0  0  0  0  0
    9.1842    6.2887   -3.5948 C   0  0  1  0  0  0  0  0  0  0  0  0
   10.1015    6.7248   -4.6717 N   0  0  0  0  0  0  0  0  0  0  0  0
   10.0803    6.1303   -5.9168 C   0  0  0  0  0  0  0  0  0  0  0  0
   10.9361    6.5266   -6.8961 C   0  0  0  0  0  0  0  0  0  0  0  0
   11.8627    7.5637   -6.6018 C   0  0  0  0  0  0  0  0  0  0  0  0
   12.6369    7.9314   -7.4751 O   0  0  0  0  0  0  0  0  0  0  0  0
   11.8719    8.1278   -5.3666 N   0  0  0  0  0  0  0  0  0  0  0  0
   10.9926    7.7008   -4.4250 C   0  0  0  0  0  0  0  0  0  0  0  0
   10.9832    8.1940   -3.3165 O   0  0  0  0  0  0  0  0  0  0  0  0
 12 18  1  0
 12 13  1  0
 11 12  1  6
 18 19  2  0
 18 17  1  0
 17 15  1  0
 15 16  2  0
 15 14  1  0
 14 13  2  0
 11  4  1  0
 11 10  1  0
  4  5  1  0
  4  3  1  1
  5  6  1  1
  5  7  1  0
  3  2  2  3
  7 10  1  0
  7  8  1  6
  2  1  2  0
  8  9  1  0
M  CHG  2   1  -1   2   1
M  END
$$$$
