
     RDKit          3D

 55 57  0  0  0  0  0  0  0  0999 V2000
    8.6410    2.1050   -4.1942 C   0  0  0  0  0  0  0  0  0  0  0  0
    9.9344    2.8969   -4.2511 C   0  0  0  0  0  0  0  0  0  0  0  0
   10.4238    3.5922   -3.0506 C   0  0  0  0  0  0  0  0  0  0  0  0
    9.7799    3.7285   -2.0070 O   0  0  0  0  0  0  0  0  0  0  0  0
   12.0567    4.0590   -3.0838 S   0  0  0  0  0  0  0  0  0  0  0  0
   12.3681    4.5953   -1.4034 C   0  0  0  0  0  0  0  0  0  0  0  0
   11.8658    6.0260   -1.3129 C   0  0  0  0  0  0  0  0  0  0  0  0
   12.2282    6.6458   -0.0791 N   0  0  0  0  0  0  0  0  0  0  0  0
   12.7961    7.8638   -0.0263 C   0  0  0  0  0  0  0  0  0  0  0  0
   13.0789    8.5481   -1.0105 O   0  0  0  0  0  0  0  0  0  0  0  0
   13.1162    8.4252    1.3355 C   0  0  0  0  0  0  0  0  0  0  0  0
   14.6127    8.4368    1.5085 C   0  0  0  0  0  0  0  0  0  0  0  0
   14.9933    8.9731    2.8037 N   0  0  0  0  0  0  0  0  0  0  0  0
   15.0162   10.2649    3.0178 C   0  0  0  0  0  0  0  0  0  0  0  0
   14.6633   11.1252    2.2041 O   0  0  0  0  0  0  0  0  0  0  0  0
   15.4061   10.6460    4.3962 C   0  0  0  0  0  0  0  0  0  0  0  0
   16.1410    9.5775    4.9582 O   0  0  0  0  0  0  0  0  0  0  0  0
   14.1741   10.9728    5.2919 C   0  0  0  0  0  0  0  0  0  0  0  0
   13.4576   12.2742    4.9717 C   0  0  0  0  0  0  0  0  0  0  0  0
   13.1113    9.8689    5.1752 C   0  0  0  0  0  0  0  0  0  0  0  0
   14.6884   11.0654    6.7331 C   0  0  0  0  0  0  0  0  0  0  0  0
   15.7269   12.0375    6.7915 O   0  0  0  0  0  0  0  0  0  0  0  0
   16.6372   12.0354    8.1506 P   0  0  0  0  0  0  0  0  0  0  0  0
   17.5503   13.1595    7.9561 O   0  0  0  0  0  0  0  0  0  0  0  0
   15.7501   12.2606    9.3179 O   0  0  0  0  0  0  0  0  0  0  0  0
   17.2301   10.6034    8.5099 O   0  0  0  0  0  0  0  0  0  0  0  0
   18.3983    9.8529    7.6809 P   0  0  0  0  0  0  0  0  0  0  0  0
   18.5583   10.4052    6.3297 O   0  0  0  0  0  0  0  0  0  0  0  0
   19.6431   10.1478    8.5022 O   0  0  0  0  0  0  0  0  0  0  0  0
   18.1201    8.2924    7.7600 O   0  0  0  0  0  0  0  0  0  0  0  0
   18.0751    7.5164    8.9658 C   0  0  0  0  0  0  0  0  0  0  0  0
   18.6646    6.1666    8.5390 C   0  0  0  0  0  0  0  0  0  0  0  0
   17.6077    5.4874    7.8327 O   0  0  0  0  0  0  0  0  0  0  0  0
   18.1010    5.2852    6.4852 C   0  0  0  0  0  0  0  0  0  0  0  0
   16.9716    5.3569    5.5020 N   0  0  0  0  0  0  0  0  0  0  0  0
   16.1289    6.3983    5.2735 C   0  0  0  0  0  0  0  0  0  0  0  0
   15.2076    6.0779    4.2959 N   0  0  0  0  0  0  0  0  0  0  0  0
   15.4736    4.7976    3.9658 C   0  0  0  0  0  0  0  0  0  0  0  0
   14.8857    3.8796    3.0534 C   0  0  0  0  0  0  0  0  0  0  0  0
   13.8059    4.2648    2.3403 N   0  0  0  0  0  0  0  0  0  0  0  0
   15.4382    2.6497    2.9529 N   0  0  0  0  0  0  0  0  0  0  0  0
   16.5035    2.2796    3.6976 C   0  0  0  0  0  0  0  0  0  0  0  0
   17.1201    3.0758    4.6045 N   0  0  0  0  0  0  0  0  0  0  0  0
   16.6319    4.3086    4.7546 C   0  0  0  0  0  0  0  0  0  0  0  0
   19.1773    6.2835    6.1710 C   0  0  0  0  0  0  0  0  0  0  0  0
   20.0655    5.8271    5.1423 O   0  0  0  0  0  0  0  0  0  0  0  0
   19.8161    6.3567    7.5571 C   0  0  0  0  0  0  0  0  0  0  0  0
   20.7945    5.3197    7.6337 O   0  0  0  0  0  0  0  0  0  0  0  0
   22.1198    5.4435    8.6028 P   0  0  0  0  0  0  0  0  0  0  0  0
   22.8409    4.1918    8.2383 O   0  0  0  0  0  0  0  0  0  0  0  0
   22.7706    6.7117    8.1339 O   0  0  0  0  0  0  0  0  0  0  0  0
   21.5695    5.4278    9.9977 O   0  0  0  0  0  0  0  0  0  0  0  0
   10.6220    2.9362   -5.3568 N   0  0  0  0  0  0  0  0  0  0  0  0
   11.6854    3.5122   -5.4239 O   0  0  0  0  0  0  0  0  0  0  0  0
   10.1640    2.4658   -6.3684 O   0  0  0  0  0  0  0  0  0  0  0  0
 41 42  1  0
 41 39  2  0
 42 43  2  0
 43 44  1  0
 44 38  2  0
 44 35  1  0
 38 39  1  0
 38 37  1  0
 39 40  1  0
 37 36  2  0
 36 35  1  0
 35 34  1  0
 34 45  1  0
 34 33  1  0
 45 46  1  0
 45 47  1  0
 47 48  1  0
 47 32  1  0
 48 49  1  0
 32 33  1  0
 32 31  1  0
 31 30  1  0
 30 27  1  0
 49 50  2  0
 49 51  1  0
 49 52  1  0
 27 29  1  0
 27 28  2  0
 27 26  1  0
 26 23  1  0
 23 25  1  0
 23 24  2  0
 23 22  1  0
 22 21  1  0
 21 18  1  0
 18 19  1  0
 18 20  1  0
 18 16  1  0
 16 17  1  0
 16 14  1  0
 14 15  2  0
 14 13  1  0
 13 12  1  0
 12 11  1  0
 11  9  1  0
  9 10  2  0
  9  8  1  0
  8  7  1  0
  7  6  1  0
  6  5  1  0
  5  3  1  0
  3  4  2  0
  3  2  1  0
  2  1  1  0
  2 53  1  0
 53 55  1  0
 53 54  2  0
M  CHG  2  53   1  55  -1
M  END
$$$$
