
     RDKit          3D

 56 58  0  0  0  0  0  0  0  0999 V2000
    9.6387    2.2172   -4.2126 C   0  0  0  0  0  0  0  0  0  0  0  0
   10.7528    3.2311   -4.0316 C   0  0  0  0  0  0  0  0  0  0  0  0
   10.8662    3.7173   -2.6225 C   0  0  0  0  0  0  0  0  0  0  0  0
    9.9462    3.7122   -1.8117 O   0  0  0  0  0  0  0  0  0  0  0  0
   12.1762    4.2507   -2.2401 N   0  0  0  0  0  0  0  0  0  0  0  0
   12.3432    4.8567   -0.9505 C   0  0  0  0  0  0  0  0  0  0  0  0
   11.8115    6.2801   -0.9706 C   0  0  0  0  0  0  0  0  0  0  0  0
   12.1411    6.9502    0.2476 N   0  0  0  0  0  0  0  0  0  0  0  0
   12.9642    7.9616    0.2428 C   0  0  0  0  0  0  0  0  0  0  0  0
   13.4404    8.3518   -0.7938 O   0  0  0  0  0  0  0  0  0  0  0  0
   13.3358    8.5997    1.5502 C   0  0  0  0  0  0  0  0  0  0  0  0
   14.8432    8.5355    1.7020 C   0  0  0  0  0  0  0  0  0  0  0  0
   15.2587    9.0620    2.9805 N   0  0  0  0  0  0  0  0  0  0  0  0
   15.2130   10.3488    3.2588 C   0  0  0  0  0  0  0  0  0  0  0  0
   14.8454   11.1775    2.4198 O   0  0  0  0  0  0  0  0  0  0  0  0
   15.6090   10.7169    4.6695 C   0  0  0  0  0  0  0  0  0  0  0  0
   16.3000    9.6541    5.2681 O   0  0  0  0  0  0  0  0  0  0  0  0
   14.4722   10.7667    5.6735 C   0  0  0  0  0  0  0  0  0  0  0  0
   13.1519   10.1375    5.2776 C   0  0  0  0  0  0  0  0  0  0  0  0
   14.0083   12.1067    5.0909 C   0  0  0  0  0  0  0  0  0  0  0  0
   14.6068   11.4658    7.0096 C   0  0  0  0  0  0  0  0  0  0  0  0
   15.8497   12.1452    7.0859 O   0  0  0  0  0  0  0  0  0  0  0  0
   16.6793   12.1112    8.4737 P   0  0  0  0  0  0  0  0  0  0  0  0
   17.7946   13.0852    8.3218 O   0  0  0  0  0  0  0  0  0  0  0  0
   15.7695   12.4233    9.6243 O   0  0  0  0  0  0  0  0  0  0  0  0
   17.2695   10.6817    8.8003 O   0  0  0  0  0  0  0  0  0  0  0  0
   18.5147   10.0685    8.0066 P   0  0  0  0  0  0  0  0  0  0  0  0
   18.7349   10.7581    6.6921 O   0  0  0  0  0  0  0  0  0  0  0  0
   19.7039   10.2262    8.9112 O   0  0  0  0  0  0  0  0  0  0  0  0
   18.2951    8.5142    7.8794 O   0  0  0  0  0  0  0  0  0  0  0  0
   18.1702    7.6854    9.0304 C   0  0  0  0  0  0  0  0  0  0  0  0
   18.6844    6.2988    8.6409 C   0  0  0  0  0  0  0  0  0  0  0  0
   17.6486    5.5641    7.9474 O   0  0  0  0  0  0  0  0  0  0  0  0
   18.1213    5.3692    6.5989 C   0  0  0  0  0  0  0  0  0  0  0  0
   17.0118    5.4584    5.6373 N   0  0  0  0  0  0  0  0  0  0  0  0
   16.1752    6.5062    5.4102 C   0  0  0  0  0  0  0  0  0  0  0  0
   15.2625    6.1620    4.4599 N   0  0  0  0  0  0  0  0  0  0  0  0
   15.5149    4.8839    4.1055 C   0  0  0  0  0  0  0  0  0  0  0  0
   14.9319    3.9502    3.1545 C   0  0  0  0  0  0  0  0  0  0  0  0
   13.8691    4.3483    2.4181 N   0  0  0  0  0  0  0  0  0  0  0  0
   15.4809    2.7314    3.0441 N   0  0  0  0  0  0  0  0  0  0  0  0
   16.5503    2.3613    3.8062 C   0  0  0  0  0  0  0  0  0  0  0  0
   17.1456    3.1747    4.7003 N   0  0  0  0  0  0  0  0  0  0  0  0
   16.6613    4.4201    4.8865 C   0  0  0  0  0  0  0  0  0  0  0  0
   19.2017    6.3956    6.2928 C   0  0  0  0  0  0  0  0  0  0  0  0
   20.0917    5.9665    5.2368 O   0  0  0  0  0  0  0  0  0  0  0  0
   19.8433    6.4415    7.6607 C   0  0  0  0  0  0  0  0  0  0  0  0
   20.7155    5.3219    7.7475 O   0  0  0  0  0  0  0  0  0  0  0  0
   22.1013    5.3405    8.5929 P   0  0  0  0  0  0  0  0  0  0  0  0
   21.8108    5.6109   10.0396 O   0  0  0  0  0  0  0  0  0  0  0  0
   22.9799    6.4085    7.9767 O   0  0  0  0  0  0  0  0  0  0  0  0
   22.6529    3.9466    8.4417 O   0  0  0  0  0  0  0  0  0  0  0  0
   10.4176    4.5356   -5.0381 S   0  0  0  0  0  0  0  0  0  0  0  0
    9.1476    5.0031   -4.5752 O   0  0  0  0  0  0  0  0  0  0  0  0
   10.4731    3.9727   -6.3429 O   0  0  0  0  0  0  0  0  0  0  0  0
   11.3660    5.6061   -4.8461 O   0  0  0  0  0  0  0  0  0  0  0  0
 51 49  1  0
 49 52  1  0
 49 50  2  0
 49 48  1  0
 48 47  1  0
 47 45  1  0
 47 32  1  0
 45 46  1  0
 45 34  1  0
 34 35  1  0
 34 33  1  0
 35 44  1  0
 35 36  1  0
 44 43  2  0
 44 38  1  0
 43 42  1  0
 42 41  2  0
 41 39  1  0
 39 40  1  0
 39 38  2  0
 38 37  1  0
 37 36  2  0
 33 32  1  0
 32 31  1  0
 31 30  1  0
 30 27  1  0
 27 28  2  0
 27 29  1  0
 27 26  1  0
 26 23  1  0
 23 25  1  0
 23 24  2  0
 23 22  1  0
 22 21  1  0
 21 18  1  0
 18 19  1  0
 18 20  1  0
 18 16  1  0
 16 17  1  0
 16 14  1  0
 14 15  2  0
 14 13  1  0
 13 12  1  0
 12 11  1  0
 11  9  1  0
  9 10  2  0
  9  8  1  0
  8  7  1  0
  7  6  1  0
  6  5  1  0
  5  3  1  0
  3  4  2  0
  3  2  1  0
  2  1  1  0
  2 53  1  0
 53 54  2  0
 53 56  1  0
 53 55  2  0
M  END
$$$$
