
     RDKit          3D

 33 35  0  0  0  0  0  0  0  0999 V2000
   -2.7919    3.7436  -13.4051 N   0  0  0  0  0  0  0  0  0  0  0  0
   -4.1054    4.0669  -12.8651 C   0  0  0  0  0  0  0  0  0  0  0  0
   -3.9874    4.2921  -11.3830 C   0  0  0  0  0  0  0  0  0  0  0  0
   -3.0111    5.3607  -11.2187 O   0  0  0  0  0  0  0  0  0  0  0  0
   -2.7756    5.6966   -9.8055 C   0  0  0  0  0  0  0  0  0  0  0  0
   -2.3820    4.5838   -9.0809 O   0  0  0  0  0  0  0  0  0  0  0  0
   -1.0933    4.0283   -9.3181 C   0  0  0  0  0  0  0  0  0  0  0  0
   -1.0127    2.8488   -8.3417 C   0  0  0  0  0  0  0  0  0  0  0  0
   -2.0554    1.8797   -8.7055 N   0  0  0  0  0  0  0  0  0  0  0  0
    0.3615    2.1801   -8.3310 C   0  0  0  0  0  0  0  0  0  0  0  0
    1.4411    3.2153   -8.0154 C   0  0  0  0  0  0  0  0  0  0  0  0
    2.7494    2.5678   -7.9475 N   0  0  0  0  0  0  0  0  0  0  0  0
    1.4386    4.2994   -9.0941 C   0  0  0  0  0  0  0  0  0  0  0  0
    2.4193    5.2652   -8.7819 O   0  0  0  0  0  0  0  0  0  0  0  0
    3.5742    5.2662   -9.5625 C   0  0  0  0  0  0  0  0  0  0  0  0
    3.4137    6.1408  -10.7146 O   0  0  0  0  0  0  0  0  0  0  0  0
    3.1163    7.5333  -10.2963 C   0  0  0  0  0  0  0  0  0  0  0  0
    2.8447    8.3569  -11.5046 C   0  0  0  0  0  0  0  0  0  0  0  0
    3.9752    8.4680  -12.2846 O   0  0  0  0  0  0  0  0  0  0  0  0
    4.2584    8.0492   -9.4249 C   0  0  0  0  0  0  0  0  0  0  0  0
    3.9245    9.3941   -9.0394 O   0  0  0  0  0  0  0  0  0  0  0  0
    4.4510    7.1811   -8.2283 C   0  0  0  0  0  0  0  0  0  0  0  0
    5.5913    7.6975   -7.3906 N   0  0  0  0  0  0  0  0  0  0  0  0
    4.7114    5.7741   -8.6835 C   0  0  0  0  0  0  0  0  0  0  0  0
    4.7749    4.9069   -7.5739 O   0  0  0  0  0  0  0  0  0  0  0  0
    0.0811    5.0118   -9.1370 C   0  0  0  0  0  0  0  0  0  0  0  0
    0.0925    5.9263  -10.2175 O   0  0  0  0  0  0  0  0  0  0  0  0
   -4.1092    6.1893   -9.2670 C   0  0  0  0  0  0  0  0  0  0  0  0
   -3.8900    6.6191   -7.8451 N   0  0  0  0  0  0  0  0  0  0  0  0
   -5.1567    5.1446   -9.3434 C   0  0  0  0  0  0  0  0  0  0  0  0
   -6.4045    5.7071   -8.8148 O   0  0  0  0  0  0  0  0  0  0  0  0
   -5.3408    4.6705  -10.7581 C   0  0  0  0  0  0  0  0  0  0  0  0
   -6.1912    3.5198  -10.8583 O   0  0  0  0  0  0  0  0  0  0  0  0
  5 28  1  0
  5  4  1  0
  6  5  1  0
 28 30  1  0
 28 29  1  0
 30 32  1  0
 30 31  1  0
  3 32  1  0
 32 33  1  0
  3  2  1  0
  4  3  1  0
  2  1  1  0
 13 11  1  0
 11 10  1  0
 11 12  1  0
 13 26  1  0
 14 13  1  0
 26  7  1  0
 26 27  1  0
  7  8  1  0
  7  6  1  0
 10  8  1  0
  8  9  1  0
 15 24  1  0
 15 14  1  0
 15 16  1  0
 24 22  1  0
 24 25  1  0
 22 20  1  0
 22 23  1  0
 20 17  1  0
 20 21  1  0
 17 18  1  0
 17 16  1  0
 18 19  1  0
M  CHG  5   1   1   9   1  12   1  23   1  29   1
M  END
$$$$
