
     RDKit          3D

 14 15  0  0  0  0  0  0  0  0999 V2000
   -3.3379   -3.7888   -9.2611 O   0  0  0  0  0  0  0  0  0  0  0  0
   -4.3460   -4.4939   -9.0034 C   0  0  0  0  0  0  0  0  0  0  0  0
   -5.2784   -4.6309   -9.8399 O   0  0  0  0  0  0  0  0  0  0  0  0
   -4.4316   -5.1679   -7.6418 C   0  0  0  0  0  0  0  0  0  0  0  0
   -4.5486   -4.2970   -6.5731 C   0  0  0  0  0  0  0  0  0  0  0  0
   -4.6243   -4.7938   -5.2933 C   0  0  0  0  0  0  0  0  0  0  0  0
   -4.5923   -6.1530   -5.0731 C   0  0  0  0  0  0  0  0  0  0  0  0
   -4.4769   -7.0346   -6.1364 C   0  0  0  0  0  0  0  0  0  0  0  0
   -4.3864   -6.5502   -7.4277 C   0  0  0  0  0  0  0  0  0  0  0  0
   -4.2500   -7.4181   -8.4253 N   0  0  0  0  0  0  0  0  0  0  0  0
   -5.0193   -8.4739   -8.6359 C   0  0  0  0  0  0  0  0  0  0  0  0
   -4.5489   -9.1362   -9.7609 C   0  0  0  0  0  0  0  0  0  0  0  0
   -3.4427   -8.4359  -10.2086 C   0  0  0  0  0  0  0  0  0  0  0  0
   -3.2769   -7.3768   -9.3293 C   0  0  0  0  0  0  0  0  0  0  0  0
 12 13  1  0
 11 12  2  0
  8  7  2  0
  7  6  1  0
  9  8  1  0
  9  4  2  0
 10  9  1  0
  4  5  1  0
  4  2  1  0
  5  6  2  0
  2  3  1  0
  2  1  2  0
 10 14  1  0
 10 11  1  0
 14 13  2  0
M  END
$$$$
