
     RDKit          3D

 30 32  0  0  0  0  0  0  0  0999 V2000
  -12.7737   -0.5702   -8.9514 C   0  0  0  0  0  0  0  0  0  0  0  0
  -13.8379   -1.0051   -9.7828 O   0  0  0  0  0  0  0  0  0  0  0  0
  -13.6209   -0.5433  -11.0348 C   0  0  0  0  0  0  0  0  0  0  0  0
  -12.5667   -0.1631  -11.5166 O   0  0  0  0  0  0  0  0  0  0  0  0
  -14.8869   -0.5243  -11.7434 C   0  0  0  0  0  0  0  0  0  0  0  0
  -14.8772   -0.0057  -13.0133 C   0  0  0  0  0  0  0  0  0  0  0  0
  -16.0581    0.0315  -13.7037 C   0  0  0  0  0  0  0  0  0  0  0  0
  -16.1500    0.6606  -15.2965 Cl  0  0  0  0  0  0  0  0  0  0  0  0
  -17.1868   -0.4487  -13.1114 C   0  0  0  0  0  0  0  0  0  0  0  0
  -18.3656   -0.4127  -13.8018 O   0  0  0  0  0  0  0  0  0  0  0  0
  -17.1622   -0.9678  -11.8540 C   0  0  0  0  0  0  0  0  0  0  0  0
  -18.6841   -1.5493  -11.1902 S   0  0  0  0  0  0  0  0  0  0  0  0
  -18.4636   -1.7979   -9.7817 O   0  0  0  0  0  0  0  0  0  0  0  0
  -19.6595   -0.5747  -11.6304 O   0  0  0  0  0  0  0  0  0  0  0  0
  -18.9708   -3.0127  -12.0309 N   0  0  0  0  0  0  0  0  0  0  0  0
  -17.9174   -3.9665  -12.1402 C   0  0  0  0  0  0  0  0  0  0  0  0
  -17.1100   -4.3105  -11.0904 C   0  0  0  0  0  0  0  0  0  0  0  0
  -16.1219   -5.2462  -11.2806 C   0  0  0  0  0  0  0  0  0  0  0  0
  -15.2380   -5.6145  -10.2190 C   0  0  0  0  0  0  0  0  0  0  0  0
  -15.6722   -6.3960   -9.1808 C   0  0  0  0  0  0  0  0  0  0  0  0
  -14.8161   -6.7407   -8.1678 C   0  0  0  0  0  0  0  0  0  0  0  0
  -13.5212   -6.2930   -8.1961 C   0  0  0  0  0  0  0  0  0  0  0  0
  -13.0836   -5.4970   -9.2241 C   0  0  0  0  0  0  0  0  0  0  0  0
  -13.9451   -5.1632  -10.2354 C   0  0  0  0  0  0  0  0  0  0  0  0
  -15.9690   -5.8213  -12.5132 C   0  0  0  0  0  0  0  0  0  0  0  0
  -15.0198   -6.7399  -12.7110 F   0  0  0  0  0  0  0  0  0  0  0  0
  -16.7823   -5.5142  -13.5617 C   0  0  0  0  0  0  0  0  0  0  0  0
  -17.7511   -4.5792  -13.3497 C   0  0  0  0  0  0  0  0  0  0  0  0
  -18.5492   -4.2582  -14.3713 F   0  0  0  0  0  0  0  0  0  0  0  0
  -16.0091   -1.0101  -11.1209 C   0  0  0  0  0  0  0  0  0  0  0  0
  9  7  1  0
  7  6  2  0
  7  8  1  0
 20 21  2  0
 19 20  1  0
 21 22  1  0
 23 22  2  0
 24 23  1  0
 19 24  2  0
 16 17  2  0
 17 18  1  0
 30  5  2  0
 11 30  1  0
  5  3  1  0
  5  6  1  0
  3  4  2  0
  3  2  1  0
  2  1  1  0
 11  9  2  0
  9 10  1  0
 12 11  1  0
 16 28  1  0
 15 16  1  0
 28 27  2  0
 28 29  1  0
 27 25  1  0
 18 25  2  0
 25 26  1  0
 18 19  1  0
 15 12  1  0
 12 13  2  0
 12 14  2  0
M  END
$$$$
