
     RDKit          3D

 33 35  0  0  0  0  0  0  0  0999 V2000
   -2.7789    3.7592  -13.4096 N   0  0  0  0  0  0  0  0  0  0  0  0
   -4.0773    4.0679  -12.8284 C   0  0  0  0  0  0  0  0  0  0  0  0
   -3.9037    4.3115  -11.3326 C   0  0  0  0  0  0  0  0  0  0  0  0
   -2.9633    5.3460  -11.1802 O   0  0  0  0  0  0  0  0  0  0  0  0
   -2.7372    5.6755   -9.8361 C   0  0  0  0  0  0  0  0  0  0  0  0
   -2.3663    4.5384   -9.0561 O   0  0  0  0  0  0  0  0  0  0  0  0
   -1.0725    3.9889   -9.3083 C   0  0  0  0  0  0  0  0  0  0  0  0
   -0.9914    2.8027   -8.3377 C   0  0  0  0  0  0  0  0  0  0  0  0
   -1.9791    1.8055   -8.7549 N   0  0  0  0  0  0  0  0  0  0  0  0
    0.3909    2.1590   -8.3295 C   0  0  0  0  0  0  0  0  0  0  0  0
    1.4172    3.2213   -7.9774 C   0  0  0  0  0  0  0  0  0  0  0  0
    2.7313    2.6059   -7.8594 N   0  0  0  0  0  0  0  0  0  0  0  0
    1.4461    4.2822   -9.0696 C   0  0  0  0  0  0  0  0  0  0  0  0
    2.4200    5.2501   -8.7422 O   0  0  0  0  0  0  0  0  0  0  0  0
    3.5676    5.2688   -9.5757 C   0  0  0  0  0  0  0  0  0  0  0  0
    3.4221    6.1542  -10.6816 O   0  0  0  0  0  0  0  0  0  0  0  0
    3.2262    7.4912  -10.2648 C   0  0  0  0  0  0  0  0  0  0  0  0
    3.2429    8.3576  -11.5146 C   0  0  0  0  0  0  0  0  0  0  0  0
    2.2619    7.8522  -12.3614 O   0  0  0  0  0  0  0  0  0  0  0  0
    4.3529    8.0125   -9.4004 C   0  0  0  0  0  0  0  0  0  0  0  0
    3.9985    9.3226   -8.9842 O   0  0  0  0  0  0  0  0  0  0  0  0
    4.5238    7.1360   -8.1799 C   0  0  0  0  0  0  0  0  0  0  0  0
    5.6874    7.6151   -7.4534 N   0  0  0  0  0  0  0  0  0  0  0  0
    4.7292    5.7150   -8.6944 C   0  0  0  0  0  0  0  0  0  0  0  0
    4.7735    4.8845   -7.5628 O   0  0  0  0  0  0  0  0  0  0  0  0
    0.0867    4.9654   -9.0668 C   0  0  0  0  0  0  0  0  0  0  0  0
    0.1285    5.8892  -10.1356 O   0  0  0  0  0  0  0  0  0  0  0  0
   -4.0412    6.2292   -9.2695 C   0  0  0  0  0  0  0  0  0  0  0  0
   -3.8314    6.6096   -7.9214 O   0  0  0  0  0  0  0  0  0  0  0  0
   -5.0958    5.1372   -9.3067 C   0  0  0  0  0  0  0  0  0  0  0  0
   -6.3118    5.6878   -8.8162 O   0  0  0  0  0  0  0  0  0  0  0  0
   -5.2701    4.6724  -10.7470 C   0  0  0  0  0  0  0  0  0  0  0  0
   -6.1135    3.5318  -10.8123 O   0  0  0  0  0  0  0  0  0  0  0  0
  5 28  1  0
  5  4  1  0
  6  5  1  0
 28 30  1  0
 28 29  1  0
 30 32  1  0
 30 31  1  0
  3 32  1  0
 32 33  1  0
  3  2  1  0
  4  3  1  0
  2  1  1  0
 13 11  1  0
 11 10  1  0
 11 12  1  0
 13 26  1  0
 14 13  1  0
 26  7  1  0
 26 27  1  0
  7  8  1  0
  7  6  1  0
 10  8  1  0
  8  9  1  0
 15 24  1  0
 15 14  1  0
 15 16  1  0
 24 22  1  0
 24 25  1  0
 22 20  1  0
 22 23  1  0
 20 17  1  0
 20 21  1  0
 17 18  1  0
 17 16  1  0
 18 19  1  0
M  CHG  4   1   1   9   1  12   1  23   1
M  END
$$$$
