
     RDKit          3D

 31 36  0  0  0  0  0  0  0  0999 V2000
   18.5199    0.8273   -6.8681 N   0  0  0  0  0  0  0  0  0  0  0  0
   17.6440    1.8309   -6.7954 C   0  0  0  0  0  0  0  0  0  0  0  0
   17.6543    2.8194   -7.7199 N   0  0  0  0  0  0  0  0  0  0  0  0
   16.7184    3.8725   -7.6357 C   0  0  0  0  0  0  0  0  0  0  0  0
   15.7959    3.8708   -6.5982 C   0  0  0  0  0  0  0  0  0  0  0  0
   14.8468    4.8791   -6.4591 C   0  0  0  0  0  0  0  0  0  0  0  0
   13.9455    4.8316   -5.3901 C   0  0  0  0  0  0  0  0  0  0  0  0
   12.9925    5.8363   -5.2589 C   0  0  0  0  0  0  0  0  0  0  0  0
   11.6878    5.5643   -5.6886 C   0  0  0  0  0  0  0  0  0  0  0  0
   11.2917    4.0019   -6.3851 Cl  0  0  0  0  0  0  0  0  0  0  0  0
   10.6969    6.5379   -5.5619 C   0  0  0  0  0  0  0  0  0  0  0  0
   11.0090    7.7733   -5.0088 C   0  0  0  0  0  0  0  0  0  0  0  0
   12.3075    8.0453   -4.5795 C   0  0  0  0  0  0  0  0  0  0  0  0
   13.3096    7.0830   -4.6925 C   0  0  0  0  0  0  0  0  0  0  0  0
   14.6017    7.4059   -4.2628 C   0  0  0  0  0  0  0  0  0  0  0  0
   15.0910    7.0094   -3.0221 C   0  0  0  0  0  0  0  0  0  0  0  0
   16.3779    7.3454   -2.6096 C   0  0  0  0  0  0  0  0  0  0  0  0
   17.2017    8.0894   -3.4394 C   0  0  0  0  0  0  0  0  0  0  0  0
   16.7270    8.4915   -4.6908 N   0  0  0  0  0  0  0  0  0  0  0  0
   15.4273    8.1516   -5.0968 C   0  0  0  0  0  0  0  0  0  0  0  0
   13.9985    3.7635   -4.4692 C   0  0  0  0  0  0  0  0  0  0  0  0
   13.1703    3.6123   -3.4065 N   0  0  0  0  0  0  0  0  0  0  0  0
   13.1351    2.2514   -2.7582 C   0  0  0  0  0  0  0  0  0  0  0  0
   11.9051    2.2071   -1.8642 C   0  0  0  0  0  0  0  0  0  0  0  0
   10.5363    2.5894   -2.4364 C   0  0  0  0  0  0  0  0  0  0  0  0
    9.3581    2.0881   -1.7156 N   0  0  0  0  0  0  0  0  0  0  0  0
   11.4171    3.6343   -1.7374 C   0  0  0  0  0  0  0  0  0  0  0  0
   12.2542    4.5481   -2.5975 C   0  0  0  0  0  0  0  0  0  0  0  0
   14.9435    2.8113   -4.6562 N   0  0  0  0  0  0  0  0  0  0  0  0
   15.8281    2.8303   -5.6726 C   0  0  0  0  0  0  0  0  0  0  0  0
   16.7441    1.8456   -5.7898 N   0  0  0  0  0  0  0  0  0  0  0  0
 23 24  1  0
 23 22  1  0
 24 25  1  0
 24 27  1  0
 25 26  1  0
 25 27  1  0
 27 28  1  0
 28 22  1  0
 22 21  1  0
 21 29  1  0
 21  7  2  0
 29 30  2  0
 30 31  1  0
 30  5  1  0
 31  2  2  0
  2  1  1  0
  2  3  1  0
  3  4  2  0
  4  5  1  0
  5  6  2  0
  6  7  1  0
  7  8  1  0
  8  9  2  0
  8 14  1  0
  9 10  1  0
  9 11  1  0
 11 12  2  0
 12 13  1  0
 13 14  2  0
 14 15  1  0
 15 16  2  0
 15 20  1  0
 16 17  1  0
 17 18  2  0
 18 19  1  0
 19 20  2  0
M  CHG  1  26   1
M  END
$$$$
