
     RDKit          3D

 41 45  0  0  0  0  0  0  0  0999 V2000
    9.8379    1.6879   -2.1320 C   0  0  0  0  0  0  0  0  0  0  0  0
    9.5070    0.6886   -1.0246 C   0  0  0  0  0  0  0  0  0  0  0  0
    8.0440    0.3235   -0.7827 C   0  0  0  0  0  0  0  0  0  0  0  0
    7.1628    1.1121   -1.1261 O   0  0  0  0  0  0  0  0  0  0  0  0
    7.7244   -0.8290   -0.2049 N   0  0  0  0  0  0  0  0  0  0  0  0
    6.3022   -1.1618    0.0128 C   0  0  0  0  0  0  0  0  0  0  0  0
    6.1455   -2.2193    1.0919 C   0  0  0  0  0  0  0  0  0  0  0  0
    7.0128   -3.4046    0.8271 N   0  0  0  0  0  0  0  0  0  0  0  0
    6.5911   -4.7146    1.1509 C   0  0  0  0  0  0  0  0  0  0  0  0
    7.2508   -5.7106    0.5295 N   0  0  0  0  0  0  0  0  0  0  0  0
    6.9432   -6.9995    0.7156 C   0  0  0  0  0  0  0  0  0  0  0  0
    7.5750   -7.8767    0.1303 O   0  0  0  0  0  0  0  0  0  0  0  0
    5.9109   -7.3463    1.5732 N   0  0  0  0  0  0  0  0  0  0  0  0
    5.5987   -8.6919    1.7469 C   0  0  0  0  0  0  0  0  0  0  0  0
    6.1618   -9.3899    2.8015 C   0  0  0  0  0  0  0  0  0  0  0  0
    7.1195   -8.6832    3.7567 C   0  0  0  0  0  0  0  0  0  0  0  0
    5.8412  -10.7324    2.9615 C   0  0  0  0  0  0  0  0  0  0  0  0
    4.9681  -11.3264    2.0568 C   0  0  0  0  0  0  0  0  0  0  0  0
    4.4424  -10.6381    1.0562 N   0  0  0  0  0  0  0  0  0  0  0  0
    4.7311   -9.3396    0.8662 C   0  0  0  0  0  0  0  0  0  0  0  0
    4.0819   -8.6031   -0.3155 C   0  0  0  0  0  0  0  0  0  0  0  0
    4.5094   -9.2281   -1.6506 C   0  0  0  0  0  0  0  0  0  0  0  0
    2.5618   -8.6559   -0.1623 C   0  0  0  0  0  0  0  0  0  0  0  0
    5.1929   -6.3559    2.2388 C   0  0  0  0  0  0  0  0  0  0  0  0
    4.1915   -6.7059    3.0639 N   0  0  0  0  0  0  0  0  0  0  0  0
    3.4681   -5.8024    3.7359 C   0  0  0  0  0  0  0  0  0  0  0  0
    2.4434   -6.2320    4.5815 C   0  0  0  0  0  0  0  0  0  0  0  0
    2.7169   -7.1225    5.6240 C   0  0  0  0  0  0  0  0  0  0  0  0
    3.9764   -7.5858    5.8366 O   0  0  0  0  0  0  0  0  0  0  0  0
    1.6925   -7.5451    6.4635 C   0  0  0  0  0  0  0  0  0  0  0  0
    0.3949   -7.0900    6.2721 C   0  0  0  0  0  0  0  0  0  0  0  0
    0.1096   -6.2079    5.2367 C   0  0  0  0  0  0  0  0  0  0  0  0
    1.1288   -5.7820    4.3913 C   0  0  0  0  0  0  0  0  0  0  0  0
    0.8161   -4.9314    3.3915 F   0  0  0  0  0  0  0  0  0  0  0  0
    3.7589   -4.4453    3.5794 C   0  0  0  0  0  0  0  0  0  0  0  0
    3.0425   -3.5237    4.2509 F   0  0  0  0  0  0  0  0  0  0  0  0
    4.7903   -4.0559    2.7212 C   0  0  0  0  0  0  0  0  0  0  0  0
    5.5295   -5.0203    2.0321 C   0  0  0  0  0  0  0  0  0  0  0  0
    8.2653   -3.2281    0.0630 C   0  0  0  0  0  0  0  0  0  0  0  0
    8.0292   -3.5883   -1.4115 C   0  0  0  0  0  0  0  0  0  0  0  0
    8.7694   -1.7929    0.2094 C   0  0  0  0  0  0  0  0  0  0  0  0
 40 39  1  0
 39 41  1  0
 39  8  1  0
 41  5  1  0
  5  3  1  0
  5  6  1  0
  3  4  2  0
  3  2  1  0
  2  1  1  0
  6  7  1  0
  7  8  1  0
  8  9  1  0
  9 10  2  0
  9 38  1  0
 10 11  1  0
 11 12  2  0
 11 13  1  0
 13 14  1  0
 13 24  1  0
 14 15  2  0
 14 20  1  0
 15 16  1  0
 15 17  1  0
 17 18  2  0
 18 19  1  0
 19 20  2  0
 20 21  1  0
 21 22  1  0
 21 23  1  0
 24 25  1  0
 24 38  2  0
 25 26  2  0
 38 37  1  0
 37 35  2  0
 35 36  1  0
 35 26  1  0
 26 27  1  0
 27 33  1  0
 27 28  2  0
 33 34  1  0
 33 32  2  0
 32 31  1  0
 31 30  2  0
 30 28  1  0
 28 29  1  0
M  END
$$$$
