
     RDKit          3D

 25 27  0  0  0  0  0  0  0  0999 V2000
   -1.5772   -4.2747    5.4372 C   0  0  0  0  0  0  0  0  0  0  0  0
   -0.1927   -3.7286    5.3494 C   0  0  0  0  0  0  0  0  0  0  0  0
    0.4345   -3.5506    4.1274 C   0  0  0  0  0  0  0  0  0  0  0  0
    1.7255   -3.0383    4.0828 C   0  0  0  0  0  0  0  0  0  0  0  0
    2.3689   -2.6783    5.2572 C   0  0  0  0  0  0  0  0  0  0  0  0
    1.7271   -2.8426    6.4737 C   0  0  0  0  0  0  0  0  0  0  0  0
    2.4585   -2.4883    7.7223 C   0  0  0  0  0  0  0  0  0  0  0  0
    3.2687   -1.5774    7.7096 O   0  0  0  0  0  0  0  0  0  0  0  0
    2.2042   -3.2710    8.8988 N   0  0  0  0  0  0  0  0  0  0  0  0
    2.8456   -3.0610   10.0733 N   0  0  0  0  0  0  0  0  0  0  0  0
    1.9485   -2.2340   11.1568 S   0  0  0  0  0  0  0  0  0  0  0  0
    1.1302   -1.2335   10.5335 O   0  0  0  0  0  0  0  0  0  0  0  0
    2.8096   -1.6347   12.1206 O   0  0  0  0  0  0  0  0  0  0  0  0
    0.8801   -3.3249   12.0383 C   0  0  0  0  0  0  0  0  0  0  0  0
   -0.1342   -3.9768   11.3520 C   0  0  0  0  0  0  0  0  0  0  0  0
   -0.9846   -4.8353   12.0483 C   0  0  0  0  0  0  0  0  0  0  0  0
   -0.8188   -5.0498   13.4476 C   0  0  0  0  0  0  0  0  0  0  0  0
   -1.7101   -5.9291   14.1436 C   0  0  0  0  0  0  0  0  0  0  0  0
   -1.5362   -6.1348   15.5115 C   0  0  0  0  0  0  0  0  0  0  0  0
   -0.5009   -5.4835   16.1965 C   0  0  0  0  0  0  0  0  0  0  0  0
    0.3570   -4.6174   15.5162 C   0  0  0  0  0  0  0  0  0  0  0  0
    0.1805   -4.4035   14.1176 C   0  0  0  0  0  0  0  0  0  0  0  0
    1.0457   -3.5186   13.4075 C   0  0  0  0  0  0  0  0  0  0  0  0
    0.4421   -3.3713    6.5157 C   0  0  0  0  0  0  0  0  0  0  0  0
   -0.2037   -3.5528    7.6664 F   0  0  0  0  0  0  0  0  0  0  0  0
 14 23  1  0
 11 14  1  0
 14 15  2  0
 23 22  2  0
 22 17  1  0
 22 21  1  0
 17 18  1  0
 17 16  2  0
 18 19  2  0
 20 19  1  0
 21 20  2  0
  2  1  1  0
 24  2  2  0
  2  3  1  0
 24 25  1  0
  6 24  1  0
  6  5  2  0
  7  6  1  0
  5  4  1  0
  4  3  2  0
  7  8  2  0
  9  7  1  0
 10  9  1  0
 10 11  1  0
 11 12  2  0
 11 13  2  0
 16 15  1  0
M  END
$$$$
