
     RDKit          3D

 15 16  0  0  0  0  0  0  0  0999 V2000
    3.9380   -4.2273    3.7003 N   0  0  0  0  0  4  0  0  0  0  0  0
    4.3187   -2.9208    4.2412 C   0  0  1  0  0  0  0  0  0  0  0  0
    3.9900   -1.8009    3.2480 C   0  0  0  0  0  0  0  0  0  0  0  0
    2.6236   -1.8831    2.6678 C   0  0  0  0  0  0  0  0  0  0  0  0
    2.2715   -2.4450    1.4715 C   0  0  0  0  0  0  0  0  0  0  0  0
    0.9184   -2.3606    1.2879 N   0  0  0  0  0  0  0  0  0  0  0  0
    0.3615   -1.7455    2.3776 C   0  0  0  0  0  0  0  0  0  0  0  0
   -0.9706   -1.4148    2.6380 C   0  0  0  0  0  0  0  0  0  0  0  0
   -1.2405   -0.7790    3.8120 C   0  0  0  0  0  0  0  0  0  0  0  0
   -0.2286   -0.4593    4.7204 C   0  0  0  0  0  0  0  0  0  0  0  0
    1.0945   -0.7730    4.4628 C   0  0  0  0  0  0  0  0  0  0  0  0
    1.4050   -1.4268    3.2671 C   0  0  0  0  0  0  0  0  0  0  0  0
    3.6455   -2.6928    5.5807 C   0  0  0  0  0  0  0  0  0  0  0  0
    2.8747   -3.5571    6.0029 O   0  0  0  0  0  0  0  0  0  0  0  0
    3.9140   -1.6733    6.2333 O   0  0  0  0  0  1  0  0  0  0  0  0
  2  1  1  6
  2 13  1  0
  2  3  1  0
 13 15  1  0
 13 14  2  0
  3  4  1  0
  4  5  2  0
  4 12  1  0
  5  6  1  0
 12  7  2  0
 12 11  1  0
  6  7  1  0
  7  8  1  0
 11 10  2  0
  8  9  2  0
 10  9  1  0
M  CHG  2   1   1  15  -1
M  END
$$$$
