
     RDKit          3D

 14 14  0  0  0  0  0  0  0  0999 V2000
   15.6355   -1.4173   -0.1343 O   0  0  0  0  0  0  0  0  0  0  0  0
   15.2371   -2.5785   -0.2654 C   0  0  0  0  0  0  0  0  0  0  0  0
   15.5406   -3.5244    0.6552 O   0  0  0  0  0  0  0  0  0  0  0  0
   14.9153   -4.7554    0.1621 N   0  0  0  0  0  0  0  0  0  0  0  0
   14.6007   -5.7176    1.0427 C   0  0  0  0  0  0  0  0  0  0  0  0
   14.8026   -5.5562    2.2481 O   0  0  0  0  0  0  0  0  0  0  0  0
   14.0267   -6.8687    0.5899 O   0  0  0  0  0  0  0  0  0  0  0  0
   14.6337   -8.0464    1.1502 C   0  0  0  0  0  0  0  0  0  0  0  0
   13.8424   -9.1431    0.8103 C   0  0  0  0  0  0  0  0  0  0  0  0
   14.3913  -10.4200    0.7644 C   0  0  0  0  0  0  0  0  0  0  0  0
   13.5771  -11.5005    0.4210 C   0  0  0  0  0  0  0  0  0  0  0  0
   12.2269  -11.3030    0.1317 C   0  0  0  0  0  0  0  0  0  0  0  0
   11.6776  -10.0239    0.1699 C   0  0  0  0  0  0  0  0  0  0  0  0
   12.4895   -8.9480    0.5138 C   0  0  0  0  0  0  0  0  0  0  0  0
 11 12  1  0
 10 11  2  0
 13 12  2  0
 14 13  1  0
  9 14  2  0
  9 10  1  0
  8  9  1  0
  7  8  1  0
  4  5  1  0
  5  7  1  0
  5  6  2  0
  3  2  1  0
  2  1  2  0
  4  3  1  0
M  END
$$$$
