
     RDKit          3D

 33 36  0  0  0  0  0  0  0  0999 V2000
   10.2427    1.0714   -1.2580 C   0  0  0  0  0  0  0  0  0  0  0  0
    9.4541    0.9252    0.1160 C   0  0  0  0  0  0  0  0  0  0  0  0
    8.0472    0.4181   -0.2331 C   0  0  0  0  0  0  0  0  0  0  0  0
    7.2404    1.1157   -0.6925 O   0  0  0  0  0  0  0  0  0  0  0  0
    7.6703   -0.9450    0.0115 N   0  0  0  0  0  0  0  0  0  0  0  0
    6.4448   -1.7693   -0.1479 C   0  0  0  0  0  0  0  0  0  0  0  0
    7.1414   -2.9323    0.4623 C   0  0  0  0  0  0  0  0  0  0  0  0
    6.9084   -3.2469    1.8458 N   0  0  0  0  0  0  0  0  0  0  0  0
    5.9003   -4.1415    2.3019 C   0  0  0  0  0  0  0  0  0  0  0  0
    5.1737   -4.6528    1.5434 O   0  0  0  0  0  0  0  0  0  0  0  0
    5.8326   -4.3393    3.8049 C   0  0  0  0  0  0  0  0  0  0  0  0
    5.2322   -5.5481    4.1380 O   0  0  0  0  0  0  0  0  0  0  0  0
    3.8459   -5.4647    4.2184 C   0  0  0  0  0  0  0  0  0  0  0  0
    3.1879   -4.3022    3.8465 C   0  0  0  0  0  0  0  0  0  0  0  0
    1.8113   -4.2290    3.9249 C   0  0  0  0  0  0  0  0  0  0  0  0
    1.0962   -5.3298    4.3720 C   0  0  0  0  0  0  0  0  0  0  0  0
   -0.8362   -5.2732    4.4832 Br  0  0  0  0  0  0  0  0  0  0  0  0
    1.7598   -6.4886    4.7271 C   0  0  0  0  0  0  0  0  0  0  0  0
    3.1272   -6.5499    4.6680 C   0  0  0  0  0  0  0  0  0  0  0  0
    3.8500   -7.8328    5.0466 C   0  0  0  0  0  0  0  0  0  0  0  0
    4.0070   -8.1371    6.1666 O   0  0  0  0  0  0  0  0  0  0  0  0
    4.3300   -8.6614    3.9693 N   0  0  0  0  0  0  0  0  0  0  0  0
    5.0421   -9.9221    4.0459 C   0  0  0  0  0  0  0  0  0  0  0  0
    4.8376  -10.5501    2.6491 C   0  0  0  0  0  0  0  0  0  0  0  0
    4.6237   -9.5557    1.7984 C   0  0  0  0  0  0  0  0  0  0  0  0
    4.6226   -9.6672    0.2772 C   0  0  0  0  0  0  0  0  0  0  0  0
    4.2291   -8.5924   -0.4912 C   0  0  0  0  0  0  0  0  0  0  0  0
    4.2313   -8.6903   -1.8649 C   0  0  0  0  0  0  0  0  0  0  0  0
    4.6273   -9.8548   -2.4724 C   0  0  0  0  0  0  0  0  0  0  0  0
    5.0183  -10.9287   -1.7057 C   0  0  0  0  0  0  0  0  0  0  0  0
    5.0140  -10.8320   -0.3318 C   0  0  0  0  0  0  0  0  0  0  0  0
    4.1745   -8.3508    2.5572 C   0  0  0  0  0  0  0  0  0  0  0  0
    8.3715   -2.1356    0.5094 C   0  0  0  0  0  0  0  0  0  0  0  0
  1  2  1  0
  2  3  1  0
  3  4  2  0
  3  5  1  0
  5  6  1  0
  5 33  1  0
  6  7  1  0
  7 33  1  0
  7  8  1  0
  8  9  1  0
  9 10  2  0
  9 11  1  0
 11 12  1  0
 12 13  1  0
 13 14  2  0
 13 19  1  0
 14 15  1  0
 15 16  2  0
 16 17  1  0
 16 18  1  0
 18 19  2  0
 19 20  1  0
 20 21  2  0
 20 22  1  0
 22 23  1  0
 22 32  1  0
 23 24  1  0
 24 25  2  0
 25 32  1  0
 25 26  1  0
 26 27  2  0
 26 31  1  0
 27 28  1  0
 28 29  2  0
 29 30  1  0
 30 31  2  0
M  END
$$$$
