
     RDKit          3D

 35 39  0  0  0  0  0  0  0  0999 V2000
    9.9620    0.6389   -0.7272 C   0  0  0  0  0  0  0  0  0  0  0  0
    9.4277    0.6932    0.6881 C   0  0  0  0  0  0  0  0  0  0  0  0
    7.9339    0.3930    0.7751 C   0  0  0  0  0  0  0  0  0  0  0  0
    7.1372    1.0841    0.2213 O   0  0  0  0  0  0  0  0  0  0  0  0
    7.4878   -0.7462    1.5453 N   0  0  0  0  0  0  0  0  0  0  0  0
    6.1166   -1.0361    1.6571 C   0  0  0  0  0  0  0  0  0  0  0  0
    5.8850   -2.4823    1.2986 C   0  0  0  0  0  0  0  0  0  0  0  0
    6.6013   -3.3447    2.2924 N   0  0  0  0  0  0  0  0  0  0  0  0
    6.0333   -4.6566    2.3627 C   0  0  0  0  0  0  0  0  0  0  0  0
    6.5831   -5.6497    1.6821 N   0  0  0  0  0  0  0  0  0  0  0  0
    6.0322   -6.9012    1.6943 N   0  0  0  0  0  0  0  0  0  0  0  0
    4.9230   -7.1389    2.3784 C   0  0  0  0  0  0  0  0  0  0  0  0
    4.4201   -8.4209    2.3383 C   0  0  0  0  0  0  0  0  0  0  0  0
    5.0363   -9.4390    3.0570 C   0  0  0  0  0  0  0  0  0  0  0  0
    4.5174  -10.7282    2.9976 C   0  0  0  0  0  0  0  0  0  0  0  0
    3.3975  -10.9932    2.2159 C   0  0  0  0  0  0  0  0  0  0  0  0
    2.7869   -9.9727    1.4988 C   0  0  0  0  0  0  0  0  0  0  0  0
    3.3027   -8.6848    1.5529 C   0  0  0  0  0  0  0  0  0  0  0  0
    4.2698   -6.1032    3.1215 C   0  0  0  0  0  0  0  0  0  0  0  0
    3.0719   -6.3210    3.8716 C   0  0  0  0  0  0  0  0  0  0  0  0
    2.4709   -5.2841    4.5870 C   0  0  0  0  0  0  0  0  0  0  0  0
    1.2998   -5.5419    5.2942 C   0  0  0  0  0  0  0  0  0  0  0  0
    1.3152   -6.2997    6.4629 C   0  0  0  0  0  0  0  0  0  0  0  0
    2.5276   -6.7963    6.9562 O   0  0  0  0  0  0  0  0  0  0  0  0
    0.1290   -6.5594    7.1443 C   0  0  0  0  0  0  0  0  0  0  0  0
   -1.0786   -6.0735    6.6592 C   0  0  0  0  0  0  0  0  0  0  0  0
   -1.1018   -5.3189    5.4933 C   0  0  0  0  0  0  0  0  0  0  0  0
    0.0823   -5.0596    4.8121 C   0  0  0  0  0  0  0  0  0  0  0  0
    0.0497   -4.3180    3.6696 F   0  0  0  0  0  0  0  0  0  0  0  0
    3.0492   -4.0099    4.5582 C   0  0  0  0  0  0  0  0  0  0  0  0
    2.2983   -2.6698    5.4602 Cl  0  0  0  0  0  0  0  0  0  0  0  0
    4.2169   -3.7877    3.8297 C   0  0  0  0  0  0  0  0  0  0  0  0
    4.8289   -4.8577    3.1016 C   0  0  0  0  0  0  0  0  0  0  0  0
    8.0484   -3.1124    2.0359 C   0  0  0  0  0  0  0  0  0  0  0  0
    8.3552   -1.6325    2.2461 C   0  0  0  0  0  0  0  0  0  0  0  0
  1  2  1  0
  2  3  1  0
  3  4  2  0
  3  5  1  0
  5  6  1  0
  5 35  1  0
  6  7  1  0
  7  8  1  0
  8 34  1  0
  8  9  1  0
 34 35  1  0
  9 10  2  0
  9 33  1  0
 10 11  1  0
 11 12  2  0
 12 13  1  0
 12 19  1  0
 13 14  2  0
 13 18  1  0
 14 15  1  0
 15 16  2  0
 16 17  1  0
 17 18  2  0
 19 20  1  0
 19 33  2  0
 20 21  2  0
 21 30  1  0
 21 22  1  0
 30 31  1  0
 30 32  2  0
 32 33  1  0
 22 23  2  0
 22 28  1  0
 23 24  1  0
 23 25  1  0
 25 26  2  0
 26 27  1  0
 27 28  2  0
 28 29  1  0
M  END
$$$$
