
     RDKit          3D

 39 43  0  0  0  0  0  0  0  0999 V2000
    9.8502    1.0679   -1.3494 C   0  0  0  0  0  0  0  0  0  0  0  0
    9.1908    1.0828    0.0286 C   0  0  0  0  0  0  0  0  0  0  0  0
    7.7500    0.5850   -0.0861 C   0  0  0  0  0  0  0  0  0  0  0  0
    6.9130    1.2670   -0.6776 O   0  0  0  0  0  0  0  0  0  0  0  0
    7.4084   -0.5945    0.4324 N   0  0  0  0  0  0  0  0  0  0  0  0
    6.0008   -1.0641    0.2904 C   0  0  0  0  0  0  0  0  0  0  0  0
    5.6263   -1.9820    1.4399 C   0  0  0  0  0  0  0  0  0  0  0  0
    6.5983   -3.0703    1.6188 N   0  0  0  0  0  0  0  0  0  0  0  0
    6.1502   -4.3506    1.9693 C   0  0  0  0  0  0  0  0  0  0  0  0
    6.8356   -5.3857    1.4446 N   0  0  0  0  0  0  0  0  0  0  0  0
    6.4979   -6.6608    1.6855 C   0  0  0  0  0  0  0  0  0  0  0  0
    7.1491   -7.5858    1.1918 O   0  0  0  0  0  0  0  0  0  0  0  0
    5.3992   -6.9587    2.4839 N   0  0  0  0  0  0  0  0  0  0  0  0
    5.0856   -8.3108    2.7394 C   0  0  0  0  0  0  0  0  0  0  0  0
    5.5681   -8.8654    3.9228 C   0  0  0  0  0  0  0  0  0  0  0  0
    5.2872  -10.1922    4.2387 C   0  0  0  0  0  0  0  0  0  0  0  0
    4.5213  -10.9504    3.3605 C   0  0  0  0  0  0  0  0  0  0  0  0
    4.0310  -10.3999    2.1819 C   0  0  0  0  0  0  0  0  0  0  0  0
    4.3207   -9.0662    1.8608 C   0  0  0  0  0  0  0  0  0  0  0  0
    3.7871   -8.4154    0.5686 C   0  0  0  0  0  0  0  0  0  0  0  0
    2.2645   -8.4480    0.6184 C   0  0  0  0  0  0  0  0  0  0  0  0
    4.3125   -9.1511   -0.6799 C   0  0  0  0  0  0  0  0  0  0  0  0
    4.6538   -5.9117    3.0576 C   0  0  0  0  0  0  0  0  0  0  0  0
    3.5552   -6.1911    3.8738 C   0  0  0  0  0  0  0  0  0  0  0  0
    2.8008   -5.1799    4.4553 C   0  0  0  0  0  0  0  0  0  0  0  0
    1.6969   -5.5391    5.2552 C   0  0  0  0  0  0  0  0  0  0  0  0
    1.8715   -6.2245    6.4606 C   0  0  0  0  0  0  0  0  0  0  0  0
    3.1190   -6.5286    6.8942 O   0  0  0  0  0  0  0  0  0  0  0  0
    0.7769   -6.5941    7.2443 C   0  0  0  0  0  0  0  0  0  0  0  0
   -0.5163   -6.3004    6.8193 C   0  0  0  0  0  0  0  0  0  0  0  0
   -0.7091   -5.6302    5.6198 C   0  0  0  0  0  0  0  0  0  0  0  0
    0.3848   -5.2624    4.8324 C   0  0  0  0  0  0  0  0  0  0  0  0
    0.1468   -4.6152    3.6762 F   0  0  0  0  0  0  0  0  0  0  0  0
    3.1865   -3.8614    4.1933 C   0  0  0  0  0  0  0  0  0  0  0  0
    2.3150   -2.5418    4.8756 Cl  0  0  0  0  0  0  0  0  0  0  0  0
    4.2806   -3.5764    3.3706 C   0  0  0  0  0  0  0  0  0  0  0  0
    5.0340   -4.5950    2.7965 C   0  0  0  0  0  0  0  0  0  0  0  0
    8.0149   -2.8838    1.2187 C   0  0  0  0  0  0  0  0  0  0  0  0
    8.4201   -1.4206    1.1422 C   0  0  0  0  0  0  0  0  0  0  0  0
 21 20  1  0
 20 22  1  0
 20 19  1  0
 19 18  1  0
 19 14  2  0
 18 17  2  0
 17 16  1  0
 16 15  2  0
 15 14  1  0
 14 13  1  0
 13 23  1  0
 13 11  1  0
 23 24  1  0
 23 37  2  0
 24 25  2  0
 11 12  2  0
 11 10  1  0
 10  9  2  0
  9  8  1  0
  9 37  1  0
  8  7  1  0
  8 38  1  0
  7  6  1  0
  6  5  1  0
 38 39  1  0
 39  5  1  0
  5  3  1  0
  3  4  2  0
  3  2  1  0
  2  1  1  0
 37 36  1  0
 36 34  2  0
 34 35  1  0
 34 25  1  0
 25 26  1  0
 26 32  1  0
 26 27  2  0
 32 33  1  0
 32 31  2  0
 31 30  1  0
 30 29  2  0
 29 27  1  0
 27 28  1  0
M  END
$$$$
