
     RDKit          3D

 20 21  0  0  0  0  0  0  0  0999 V2000
   -3.7853   -2.6598   -9.6539 C   0  0  0  0  0  0  0  0  0  0  0  0
   -4.9478   -3.6657   -9.4367 C   0  0  0  0  0  0  0  0  0  0  0  0
   -6.0857   -3.4021   -9.7986 O   0  0  0  0  0  0  0  0  0  0  0  0
   -4.6625   -4.7285   -8.6808 N   0  0  0  0  0  0  0  0  0  0  0  0
   -5.7029   -5.5453   -8.3377 C   0  0  0  0  0  0  0  0  0  0  0  0
   -5.4617   -6.8441   -7.9957 C   0  0  0  0  0  0  0  0  0  0  0  0
   -6.5102   -7.6519   -7.5974 C   0  0  0  0  0  0  0  0  0  0  0  0
   -7.7718   -7.1597   -7.4512 C   0  0  0  0  0  0  0  0  0  0  0  0
   -8.8282   -8.1413   -7.0390 Cl  0  0  0  0  0  0  0  0  0  0  0  0
   -8.0405   -5.8448   -7.7740 C   0  0  0  0  0  0  0  0  0  0  0  0
   -9.7147   -5.1390   -7.6804 S   0  0  0  0  0  0  0  0  0  0  0  0
   -9.6954   -3.7288   -7.9317 O   0  0  0  0  0  0  0  0  0  0  0  0
  -10.0444   -5.7156   -6.3711 O   0  0  0  0  0  0  0  0  0  0  0  0
  -10.5929   -5.6601   -8.7047 N   0  0  0  0  0  0  0  0  0  0  0  0
  -12.0191   -5.1910   -8.7245 C   0  0  0  0  0  0  0  0  0  0  0  0
  -12.9176   -6.2591   -9.3949 C   0  0  0  0  0  0  0  0  0  0  0  0
  -12.3208   -6.6236  -10.6608 O   0  0  0  0  0  0  0  0  0  0  0  0
  -11.3106   -5.6295  -11.0844 C   0  0  0  0  0  0  0  0  0  0  0  0
  -10.0975   -5.5864  -10.0848 C   0  0  0  0  0  0  0  0  0  0  0  0
   -7.0008   -5.0310   -8.1902 C   0  0  0  0  0  0  0  0  0  0  0  0
  1  2  1  0
  2  3  2  0
  2  4  1  0
  4  5  1  0
  5 20  2  0
  5  6  1  0
 20 10  1  0
  6  7  2  0
  7  8  1  0
  8  9  1  0
  8 10  2  0
 10 11  1  0
 11 12  2  0
 11 13  2  0
 11 14  1  0
 14 15  1  0
 14 19  1  0
 15 16  1  0
 16 17  1  0
 17 18  1  0
 18 19  1  0
M  END
$$$$
