
     RDKit          3D

 33 36  0  0  0  0  0  0  0  0999 V2000
  -11.3276   -1.4478   -8.2303 C   0  0  0  0  0  0  0  0  0  0  0  0
  -11.1109   -1.5198   -7.0972 C   0  0  0  0  0  0  0  0  0  0  0  0
  -10.8176   -1.5963   -5.6631 C   0  0  0  0  0  0  0  0  0  0  0  0
   -9.4718   -1.1526   -5.3996 O   0  0  0  0  0  0  0  0  0  0  0  0
   -8.4470   -1.9552   -5.7890 C   0  0  0  0  0  0  0  0  0  0  0  0
   -7.1621   -1.4614   -5.6147 C   0  0  0  0  0  0  0  0  0  0  0  0
   -6.1179   -2.1822   -5.9794 N   0  0  0  0  0  0  0  0  0  0  0  0
   -6.2711   -3.3965   -6.5237 C   0  0  0  0  0  0  0  0  0  0  0  0
   -5.0419   -4.2210   -6.9237 C   0  0  0  0  0  0  0  0  0  0  0  0
   -5.1843   -5.1833   -7.6877 O   0  0  0  0  0  0  0  0  0  0  0  0
   -3.8794   -3.7707   -6.4134 N   0  0  0  0  0  0  0  0  0  0  0  0
   -2.6654   -4.3484   -6.5002 C   0  0  0  0  0  0  0  0  0  0  0  0
   -2.4265   -5.5371   -7.2111 C   0  0  0  0  0  0  0  0  0  0  0  0
   -1.1544   -6.1047   -7.1894 C   0  0  0  0  0  0  0  0  0  0  0  0
   -0.9013   -7.2500   -7.8674 F   0  0  0  0  0  0  0  0  0  0  0  0
   -0.1188   -5.5219   -6.4835 C   0  0  0  0  0  0  0  0  0  0  0  0
    1.0845   -6.1205   -6.4993 F   0  0  0  0  0  0  0  0  0  0  0  0
   -0.3277   -4.3484   -5.7521 C   0  0  0  0  0  0  0  0  0  0  0  0
    0.8487   -3.7017   -4.9882 C   0  0  0  0  0  0  0  0  0  0  0  0
    1.9246   -3.3269   -6.0254 C   0  0  0  0  0  0  0  0  0  0  0  0
    0.4489   -2.3895   -4.4151 N   0  0  0  0  0  0  0  0  0  0  0  0
   -0.2776   -2.2572   -3.2415 C   0  0  0  0  0  0  0  0  0  0  0  0
   -0.6577   -1.0575   -2.8430 N   0  0  0  0  0  0  0  0  0  0  0  0
   -0.6493   -3.6620   -2.2755 S   0  0  0  0  0  0  0  0  0  0  0  0
    0.8421   -4.6545   -2.5543 C   0  0  0  0  0  0  0  0  0  0  0  0
    1.8333   -4.7383   -1.4194 C   0  0  0  0  0  0  0  0  0  0  0  0
    2.1556   -3.3880   -0.9963 O   0  0  0  0  0  0  0  0  0  0  0  0
    3.2424   -2.8255   -1.7463 C   0  0  0  0  0  0  0  0  0  0  0  0
    0.6364   -5.8696   -3.4574 C   0  0  0  0  0  0  0  0  0  0  0  0
    1.4499   -4.6518   -3.9395 C   0  0  0  0  0  0  0  0  0  0  0  0
   -1.6021   -3.7830   -5.7847 C   0  0  0  0  0  0  0  0  0  0  0  0
   -7.5559   -3.8995   -6.6949 C   0  0  0  0  0  0  0  0  0  0  0  0
   -8.6115   -3.1813   -6.3303 N   0  0  0  0  0  0  0  0  0  0  0  0
 28 27  1  0
 27 26  1  0
 26 25  1  0
 25 30  1  0
 25 29  1  0
 25 24  1  0
 30 29  1  0
 30 19  1  0
 24 22  1  0
 22 23  2  0
 22 21  1  0
 21 19  1  0
 19 20  1  0
 19 18  1  0
 18 31  1  0
 18 16  2  0
 31 12  2  0
 16 17  1  0
 16 14  1  0
 14 15  1  0
 14 13  2  0
 13 12  1  0
 12 11  1  0
 11  9  1  0
  9 10  2  0
  9  8  1  0
  8 32  2  0
  8  7  1  0
 32 33  1  0
 33  5  2  0
  7  6  2  0
  6  5  1  0
  5  4  1  0
  4  3  1  0
  3  2  1  0
  2  1  3  0
M  END
$$$$
