
     RDKit          3D

 39 43  0  0  0  0  0  0  0  0999 V2000
  -14.0642   -6.6333   -8.3663 O   0  0  0  0  0  0  0  0  0  0  0  0
  -12.7026   -6.5744   -7.9669 C   0  0  0  0  0  0  0  0  0  0  0  0
  -12.0544   -7.9437   -8.1815 C   0  0  0  0  0  0  0  0  0  0  0  0
  -12.0584   -8.1801   -9.5724 O   0  0  0  0  0  0  0  0  0  0  0  0
  -11.5576   -9.4583   -9.9128 C   0  0  0  0  0  0  0  0  0  0  0  0
  -11.5015   -9.5427  -11.7386 S   0  0  0  0  0  0  0  0  0  0  0  0
  -13.1715   -9.7830  -12.3229 C   0  0  0  0  0  0  0  0  0  0  0  0
  -14.0452   -8.5518  -12.1144 C   0  0  0  0  0  0  0  0  0  0  0  0
  -13.4401   -7.3884  -12.7299 O   0  0  0  0  0  0  0  0  0  0  0  0
  -15.4351   -8.8140  -12.7629 C   0  0  0  0  0  0  0  0  0  0  0  0
  -16.2715   -7.6281  -12.9001 N   0  0  0  0  0  0  0  0  0  0  0  0
  -16.2772   -6.7671  -13.9983 C   0  0  0  0  0  0  0  0  0  0  0  0
  -17.2072   -5.7522  -13.7481 C   0  0  0  0  0  0  0  0  0  0  0  0
  -17.5743   -4.5755  -14.5796 C   0  0  0  0  0  0  0  0  0  0  0  0
  -18.4867   -3.5779  -14.2101 C   0  0  0  0  0  0  0  0  0  0  0  0
  -18.7755   -2.4786  -15.0366 C   0  0  0  0  0  0  0  0  0  0  0  0
  -18.1587   -2.3053  -16.2690 C   0  0  0  0  0  0  0  0  0  0  0  0
  -17.2416   -3.2848  -16.6323 C   0  0  0  0  0  0  0  0  0  0  0  0
  -16.6248   -3.1561  -17.8086 F   0  0  0  0  0  0  0  0  0  0  0  0
  -16.9462   -4.3851  -15.8190 C   0  0  0  0  0  0  0  0  0  0  0  0
  -17.7272   -6.0659  -12.4622 N   0  0  0  0  0  0  0  0  0  0  0  0
  -17.1797   -7.1429  -11.9904 N   0  0  0  0  0  0  0  0  0  0  0  0
  -10.0884   -9.6161   -9.4661 C   0  0  0  0  0  0  0  0  0  0  0  0
   -9.6893  -10.9543   -9.6239 O   0  0  0  0  0  0  0  0  0  0  0  0
   -9.8742   -9.1819   -8.0778 C   0  0  0  0  0  0  0  0  0  0  0  0
   -8.6757   -9.3878   -7.4882 N   0  0  0  0  0  0  0  0  0  0  0  0
   -7.5198   -8.7198   -7.8917 C   0  0  0  0  0  0  0  0  0  0  0  0
   -6.4882   -9.1447   -7.0910 C   0  0  0  0  0  0  0  0  0  0  0  0
   -5.0997   -8.7609   -7.0841 C   0  0  0  0  0  0  0  0  0  0  0  0
   -4.1079   -9.5417   -6.4818 C   0  0  0  0  0  0  0  0  0  0  0  0
   -2.7736   -9.1624   -6.4755 C   0  0  0  0  0  0  0  0  0  0  0  0
   -2.3704   -7.9732   -7.0554 C   0  0  0  0  0  0  0  0  0  0  0  0
   -3.3652   -7.2026   -7.6430 C   0  0  0  0  0  0  0  0  0  0  0  0
   -3.0060   -6.0435   -8.1966 F   0  0  0  0  0  0  0  0  0  0  0  0
   -4.6955   -7.5584   -7.6560 C   0  0  0  0  0  0  0  0  0  0  0  0
   -7.0798  -10.0641   -6.2209 N   0  0  0  0  0  0  0  0  0  0  0  0
   -8.3365  -10.1704   -6.4693 N   0  0  0  0  0  0  0  0  0  0  0  0
  -10.6034   -7.9440   -7.6743 C   0  0  0  0  0  0  0  0  0  0  0  0
   -9.8896   -6.9048   -8.3270 O   0  0  0  0  0  0  0  0  0  0  0  0
  3 38  1  0
 25 38  1  0
 38 39  1  0
  5 23  1  0
  5  4  1  0
  6  5  1  0
  8  7  1  0
  7  6  1  0
 10  8  1  0
 11 10  1  0
 14 20  1  0
 13 14  1  0
 14 15  2  0
 20 18  2  0
 18 17  1  0
 18 19  1  0
 16 17  2  0
 15 16  1  0
 29 35  1  0
 35 33  2  0
 29 30  2  0
 28 29  1  0
 30 31  1  0
 31 32  2  0
 33 32  1  0
 33 34  1  0
 27 28  2  0
 28 36  1  0
 26 27  1  0
  3  2  1  0
  4  3  1  0
 23 25  1  0
 25 26  1  0
 23 24  1  0
  2  1  1  0
  8  9  1  0
 12 11  1  0
 12 13  2  0
 36 37  2  0
 37 26  1  0
 11 22  1  0
 22 21  2  0
 21 13  1  0
M  END
$$$$
