
     RDKit          3D

 30 33  0  0  0  0  0  0  0  0999 V2000
  -17.8293  -12.3298  -10.2405 C   0  0  0  0  0  0  0  0  0  0  0  0
  -16.4417  -11.8387  -10.4272 C   0  0  0  0  0  0  0  0  0  0  0  0
  -15.9049  -10.8491   -9.6207 C   0  0  0  0  0  0  0  0  0  0  0  0
  -14.6097  -10.3700   -9.7891 C   0  0  0  0  0  0  0  0  0  0  0  0
  -13.7736  -10.8646  -10.7858 C   0  0  0  0  0  0  0  0  0  0  0  0
  -12.1152  -10.2662  -10.9565 S   0  0  0  0  0  0  0  0  0  0  0  0
  -11.6739   -9.6041   -9.3486 C   0  0  0  0  0  0  0  0  0  0  0  0
  -12.1478   -8.2620   -9.2915 O   0  0  0  0  0  0  0  0  0  0  0  0
  -12.0393   -7.7479   -7.9380 C   0  0  0  0  0  0  0  0  0  0  0  0
  -12.6824   -6.3561   -7.9270 C   0  0  0  0  0  0  0  0  0  0  0  0
  -14.0469   -6.4321   -8.2422 O   0  0  0  0  0  0  0  0  0  0  0  0
  -10.5600   -7.7201   -7.5498 C   0  0  0  0  0  0  0  0  0  0  0  0
   -9.8630   -6.8550   -8.3532 O   0  0  0  0  0  0  0  0  0  0  0  0
  -10.0205   -9.1498   -7.6691 C   0  0  0  0  0  0  0  0  0  0  0  0
   -8.6563   -9.2465   -7.2350 N   0  0  0  0  0  0  0  0  0  0  0  0
   -7.5354   -8.5973   -7.7257 C   0  0  0  0  0  0  0  0  0  0  0  0
   -6.4787   -9.0174   -6.9441 C   0  0  0  0  0  0  0  0  0  0  0  0
   -5.0850   -8.6518   -7.0032 C   0  0  0  0  0  0  0  0  0  0  0  0
   -4.1079   -9.4102   -6.3463 C   0  0  0  0  0  0  0  0  0  0  0  0
   -2.7695   -9.0493   -6.3505 C   0  0  0  0  0  0  0  0  0  0  0  0
   -2.3431   -7.9125   -7.0116 C   0  0  0  0  0  0  0  0  0  0  0  0
   -3.3213   -7.1936   -7.6308 C   0  0  0  0  0  0  0  0  0  0  0  0
   -2.9290   -6.0294   -8.2693 F   0  0  0  0  0  0  0  0  0  0  0  0
   -4.6480   -7.4910   -7.6471 C   0  0  0  0  0  0  0  0  0  0  0  0
   -7.0302   -9.9186   -6.0332 N   0  0  0  0  0  0  0  0  0  0  0  0
   -8.2917  -10.0335   -6.1886 N   0  0  0  0  0  0  0  0  0  0  0  0
  -10.1739   -9.7048   -9.0865 C   0  0  0  0  0  0  0  0  0  0  0  0
   -9.8409  -11.0707   -9.0424 O   0  0  0  0  0  0  0  0  0  0  0  0
  -14.2932  -11.8556  -11.5935 C   0  0  0  0  0  0  0  0  0  0  0  0
  -15.5899  -12.3240  -11.4215 C   0  0  0  0  0  0  0  0  0  0  0  0
 18 24  1  0
 18 19  2  0
 17 18  1  0
 24 22  2  0
 22 21  1  0
 22 23  1  0
 20 21  2  0
 19 20  1  0
  2  1  1  0
  3  2  2  0
 30  2  1  0
  4  3  1  0
  5  4  2  0
 29 30  2  0
  5 29  1  0
  6  5  1  0
 27  7  1  0
  7  8  1  0
  7  6  1  0
  9 10  1  0
 12  9  1  0
  9  8  1  0
 10 11  1  0
 14 12  1  0
 12 13  1  0
 14 27  1  0
 15 14  1  0
 16 17  2  0
 16 15  1  0
 17 25  1  0
 27 28  1  0
 15 26  1  0
 25 26  2  0
M  END
$$$$
