
     RDKit          3D

 30 33  0  0  0  0  0  0  0  0999 V2000
  -17.7575  -13.0792   -9.9424 C   0  0  0  0  0  0  0  0  0  0  0  0
  -16.4025  -12.3976  -10.1799 C   0  0  0  0  0  0  0  0  0  0  0  0
  -15.4280  -12.9484  -11.0609 C   0  0  0  0  0  0  0  0  0  0  0  0
  -14.1646  -12.3440  -11.3025 C   0  0  0  0  0  0  0  0  0  0  0  0
  -13.7988  -11.1303  -10.6736 C   0  0  0  0  0  0  0  0  0  0  0  0
  -12.1912  -10.3051  -10.9275 S   0  0  0  0  0  0  0  0  0  0  0  0
  -11.7602   -9.5607   -9.3268 C   0  0  0  0  0  0  0  0  0  0  0  0
  -12.2572   -8.2416   -9.2667 O   0  0  0  0  0  0  0  0  0  0  0  0
  -12.1834   -7.6830   -7.9523 C   0  0  0  0  0  0  0  0  0  0  0  0
  -12.7660   -6.2802   -7.9792 C   0  0  0  0  0  0  0  0  0  0  0  0
  -14.1407   -6.4090   -8.2618 O   0  0  0  0  0  0  0  0  0  0  0  0
  -10.7032   -7.6498   -7.5361 C   0  0  0  0  0  0  0  0  0  0  0  0
   -9.9456   -6.7923   -8.3679 O   0  0  0  0  0  0  0  0  0  0  0  0
  -10.1120   -9.0852   -7.6660 C   0  0  0  0  0  0  0  0  0  0  0  0
   -8.7341   -9.0698   -7.2217 N   0  0  0  0  0  0  0  0  0  0  0  0
   -7.6213   -8.4829   -7.8406 C   0  0  0  0  0  0  0  0  0  0  0  0
   -6.5389   -8.7369   -7.0193 C   0  0  0  0  0  0  0  0  0  0  0  0
   -5.1842   -8.3159   -7.1567 C   0  0  0  0  0  0  0  0  0  0  0  0
   -4.8176   -7.2597   -7.9796 C   0  0  0  0  0  0  0  0  0  0  0  0
   -3.5121   -6.8053   -8.0960 C   0  0  0  0  0  0  0  0  0  0  0  0
   -2.4777   -7.4007   -7.3459 C   0  0  0  0  0  0  0  0  0  0  0  0
   -1.2314   -6.9808   -7.4268 F   0  0  0  0  0  0  0  0  0  0  0  0
   -2.8153   -8.4496   -6.4880 C   0  0  0  0  0  0  0  0  0  0  0  0
   -4.1354   -8.8698   -6.3935 C   0  0  0  0  0  0  0  0  0  0  0  0
   -7.0624   -9.4363   -5.9027 N   0  0  0  0  0  0  0  0  0  0  0  0
   -8.3284   -9.6278   -6.0339 N   0  0  0  0  0  0  0  0  0  0  0  0
  -10.2601   -9.6349   -9.0647 C   0  0  0  0  0  0  0  0  0  0  0  0
   -9.8277  -10.9832   -9.0272 O   0  0  0  0  0  0  0  0  0  0  0  0
  -14.7521  -10.5746   -9.7931 C   0  0  0  0  0  0  0  0  0  0  0  0
  -16.0122  -11.1894   -9.5557 C   0  0  0  0  0  0  0  0  0  0  0  0
  9 10  1  0
 10 11  1  0
 16 17  2  0
 17 18  1  0
 17 25  1  0
 21 20  1  0
 20 19  2  0
 23 21  2  0
 21 22  1  0
 18 24  2  0
 24 23  1  0
  2  1  1  0
  3  2  2  0
  2 30  1  0
  4  3  1  0
  5  4  2  0
  5 29  1  0
  6  5  1  0
 27  7  1  0
  7  8  1  0
  7  6  1  0
 12  9  1  0
  9  8  1  0
 14 12  1  0
 12 13  1  0
 14 27  1  0
 15 14  1  0
 16 15  1  0
 18 19  1  0
 27 28  1  0
 29 30  2  0
 15 26  1  0
 25 26  2  0
M  END
$$$$
