
     RDKit          3D

 30 33  0  0  0  0  0  0  0  0999 V2000
  -17.4910  -12.7670  -10.1416 C   0  0  0  0  0  0  0  0  0  0  0  0
  -16.1708  -12.2588  -10.3070 C   0  0  0  0  0  0  0  0  0  0  0  0
  -15.7801  -11.1477   -9.6011 C   0  0  0  0  0  0  0  0  0  0  0  0
  -14.5304  -10.5856   -9.7654 C   0  0  0  0  0  0  0  0  0  0  0  0
  -13.5906  -11.0695  -10.7081 C   0  0  0  0  0  0  0  0  0  0  0  0
  -11.9409  -10.3753  -10.8745 S   0  0  0  0  0  0  0  0  0  0  0  0
  -11.5399   -9.7248   -9.3350 C   0  0  0  0  0  0  0  0  0  0  0  0
  -12.0850   -8.3819   -9.2026 O   0  0  0  0  0  0  0  0  0  0  0  0
  -11.9063   -7.7152   -7.8917 C   0  0  0  0  0  0  0  0  0  0  0  0
  -12.5138   -6.2934   -8.0230 C   0  0  0  0  0  0  0  0  0  0  0  0
  -13.9540   -6.4584   -8.1725 O   0  0  0  0  0  0  0  0  0  0  0  0
  -10.4104   -7.6669   -7.5081 C   0  0  0  0  0  0  0  0  0  0  0  0
   -9.7709   -6.8887   -8.3703 O   0  0  0  0  0  0  0  0  0  0  0  0
   -9.7878   -9.1943   -7.6296 C   0  0  0  0  0  0  0  0  0  0  0  0
   -8.4839   -9.2436   -7.1902 N   0  0  0  0  0  0  0  0  0  0  0  0
   -7.3508   -8.6707   -7.7418 C   0  0  0  0  0  0  0  0  0  0  0  0
   -6.2616   -8.9932   -6.9173 C   0  0  0  0  0  0  0  0  0  0  0  0
   -4.8524   -8.6794   -7.0086 C   0  0  0  0  0  0  0  0  0  0  0  0
   -3.8403   -9.3902   -6.3497 C   0  0  0  0  0  0  0  0  0  0  0  0
   -2.4874   -9.1081   -6.4210 C   0  0  0  0  0  0  0  0  0  0  0  0
   -2.0766   -8.0116   -7.1353 C   0  0  0  0  0  0  0  0  0  0  0  0
   -3.0331   -7.2825   -7.7832 C   0  0  0  0  0  0  0  0  0  0  0  0
   -4.3836   -7.6208   -7.6824 C   0  0  0  0  0  0  0  0  0  0  0  0
   -5.2069   -6.8186   -8.3220 F   0  0  0  0  0  0  0  0  0  0  0  0
   -6.8432   -9.7644   -5.9081 N   0  0  0  0  0  0  0  0  0  0  0  0
   -8.0792   -9.8884   -6.0678 N   0  0  0  0  0  0  0  0  0  0  0  0
  -10.0346   -9.7347   -9.1015 C   0  0  0  0  0  0  0  0  0  0  0  0
   -9.6582  -11.0777   -9.0928 O   0  0  0  0  0  0  0  0  0  0  0  0
  -13.9563  -12.1977  -11.4252 C   0  0  0  0  0  0  0  0  0  0  0  0
  -15.2359  -12.7596  -11.2467 C   0  0  0  0  0  0  0  0  0  0  0  0
 18 19  2  0
 17 18  1  0
 18 23  1  0
 19 20  1  0
 20 21  2  0
 22 21  1  0
 23 22  2  0
 27  7  1  0
 14 27  1  0
 27 28  1  0
  2  1  1  0
  3  2  2  0
 30  2  1  0
  4  3  1  0
  5  4  2  0
 29 30  2  0
  5 29  1  0
  6  5  1  0
  7  8  1  0
  7  6  1  0
  9 10  1  0
 12  9  1  0
  9  8  1  0
 10 11  1  0
 14 12  1  0
 12 13  1  0
 15 14  1  0
 16 17  2  0
 16 15  1  0
 17 25  1  0
 23 24  1  0
 15 26  1  0
 25 26  2  0
M  END
$$$$
