
     RDKit          3D

 31 34  0  0  0  0  0  0  0  0999 V2000
  -18.1086  -12.4040  -10.2732 C   0  0  0  0  0  0  0  0  0  0  0  0
  -16.6632  -11.8504  -10.4589 C   0  0  0  0  0  0  0  0  0  0  0  0
  -15.8234  -12.3122  -11.4860 C   0  0  0  0  0  0  0  0  0  0  0  0
  -14.5188  -11.8289  -11.6799 C   0  0  0  0  0  0  0  0  0  0  0  0
  -13.9839  -10.8552  -10.8701 C   0  0  0  0  0  0  0  0  0  0  0  0
  -12.3409  -10.2053  -11.0834 S   0  0  0  0  0  0  0  0  0  0  0  0
  -11.8484   -9.5581   -9.4664 C   0  0  0  0  0  0  0  0  0  0  0  0
  -12.2950   -8.2216   -9.3624 O   0  0  0  0  0  0  0  0  0  0  0  0
  -12.2187   -7.7390   -8.0142 C   0  0  0  0  0  0  0  0  0  0  0  0
  -12.8182   -6.3111   -8.0152 C   0  0  0  0  0  0  0  0  0  0  0  0
  -14.1934   -6.4414   -8.2815 O   0  0  0  0  0  0  0  0  0  0  0  0
  -10.7362   -7.7255   -7.6067 C   0  0  0  0  0  0  0  0  0  0  0  0
  -10.0152   -6.8323   -8.4157 O   0  0  0  0  0  0  0  0  0  0  0  0
  -10.1589   -9.1756   -7.8234 C   0  0  0  0  0  0  0  0  0  0  0  0
   -8.8036   -9.2067   -7.4312 N   0  0  0  0  0  0  0  0  0  0  0  0
   -7.7387   -8.5326   -7.9825 C   0  0  0  0  0  0  0  0  0  0  0  0
   -6.6360   -8.9057   -7.2317 C   0  0  0  0  0  0  0  0  0  0  0  0
   -5.2929   -8.4661   -7.3258 C   0  0  0  0  0  0  0  0  0  0  0  0
   -4.9979   -7.2160   -7.8953 C   0  0  0  0  0  0  0  0  0  0  0  0
   -3.7089   -6.7290   -7.9642 C   0  0  0  0  0  0  0  0  0  0  0  0
   -2.6942   -7.5148   -7.4275 C   0  0  0  0  0  0  0  0  0  0  0  0
   -1.4150   -7.0141   -7.4957 F   0  0  0  0  0  0  0  0  0  0  0  0
   -2.9042   -8.7377   -6.8274 C   0  0  0  0  0  0  0  0  0  0  0  0
   -1.7803   -9.4804   -6.3122 C   0  0  0  0  0  0  0  0  0  0  0  0
   -4.2196   -9.1814   -6.7844 C   0  0  0  0  0  0  0  0  0  0  0  0
   -7.1383   -9.7832   -6.2788 N   0  0  0  0  0  0  0  0  0  0  0  0
   -8.3800   -9.9509   -6.4017 N   0  0  0  0  0  0  0  0  0  0  0  0
  -10.3420   -9.6559   -9.2691 C   0  0  0  0  0  0  0  0  0  0  0  0
   -9.9957  -11.0344   -9.2293 O   0  0  0  0  0  0  0  0  0  0  0  0
  -14.7853  -10.3750   -9.8364 C   0  0  0  0  0  0  0  0  0  0  0  0
  -16.0961  -10.8645   -9.6407 C   0  0  0  0  0  0  0  0  0  0  0  0
 18 19  2  0
 17 18  1  0
 18 25  1  0
 19 20  1  0
 20 21  2  0
 23 21  1  0
 25 23  2  0
 23 24  1  0
 28  7  1  0
 14 28  1  0
 28 29  1  0
  2  1  1  0
  3  2  2  0
 31  2  1  0
  4  3  1  0
  5  4  2  0
 30 31  2  0
  5 30  1  0
  6  5  1  0
  7  8  1  0
  7  6  1  0
  9 10  1  0
 12  9  1  0
  9  8  1  0
 10 11  1  0
 14 12  1  0
 12 13  1  0
 15 14  1  0
 16 17  2  0
 16 15  1  0
 17 26  1  0
 21 22  1  0
 15 27  1  0
 26 27  2  0
M  END
$$$$
