
     RDKit          3D

 28 30  0  0  0  0  0  0  0  0999 V2000
    2.6493   -5.0466   -7.8347 N   0  0  0  0  0  0  0  0  0  0  0  0
    1.5209   -5.5549   -8.6779 C   0  0  0  0  0  0  0  0  0  0  0  0
    1.1496   -4.5542   -9.8201 C   0  0  0  0  0  0  0  0  0  0  0  0
    1.1478   -3.2117   -9.2747 O   0  0  0  0  0  0  0  0  0  0  0  0
    0.2316   -5.8896   -7.8915 C   0  0  0  0  0  0  0  0  0  0  0  0
   -0.2379   -5.0781   -6.8382 C   0  0  0  0  0  0  0  0  0  0  0  0
   -1.4280   -5.3861   -6.1567 C   0  0  0  0  0  0  0  0  0  0  0  0
   -2.1183   -6.5448   -6.5465 C   0  0  0  0  0  0  0  0  0  0  0  0
   -1.6432   -7.3961   -7.5632 C   0  0  0  0  0  0  0  0  0  0  0  0
   -2.3663   -8.6513   -7.9193 C   0  0  0  0  0  0  0  0  0  0  0  0
   -1.6512   -9.8438   -8.1854 C   0  0  0  0  0  0  0  0  0  0  0  0
   -2.3273  -11.0404   -8.5062 C   0  0  0  0  0  0  0  0  0  0  0  0
   -3.7380  -11.0375   -8.5437 C   0  0  0  0  0  0  0  0  0  0  0  0
   -4.4645   -9.8619   -8.2588 C   0  0  0  0  0  0  0  0  0  0  0  0
   -5.9965   -9.8455   -8.3315 C   0  0  0  0  0  0  0  0  0  0  0  0
   -6.4487   -9.3375   -7.0593 O   0  0  0  0  0  0  0  0  0  0  0  0
   -7.7700   -8.9205   -6.7896 C   0  0  0  0  0  0  0  0  0  0  0  0
   -8.8396   -9.2622   -7.6471 C   0  0  0  0  0  0  0  0  0  0  0  0
  -10.1552   -8.8282   -7.3627 C   0  0  0  0  0  0  0  0  0  0  0  0
  -10.4117   -8.0815   -6.2041 C   0  0  0  0  0  0  0  0  0  0  0  0
   -9.3562   -7.7358   -5.3341 C   0  0  0  0  0  0  0  0  0  0  0  0
   -8.0287   -8.1249   -5.6229 C   0  0  0  0  0  0  0  0  0  0  0  0
   -6.9084   -7.7664   -4.6128 C   0  0  0  0  0  0  0  0  0  0  0  0
   -5.7813   -6.9006   -5.1671 C   0  0  0  0  0  0  0  0  0  0  0  0
   -4.7901   -6.6275   -4.4898 O   0  0  0  0  0  0  0  0  0  0  0  0
   -5.9124   -6.4165   -6.4166 O   0  0  0  0  0  0  0  0  0  0  0  0
   -3.7696   -8.6692   -7.9699 C   0  0  0  0  0  0  0  0  0  0  0  0
   -0.4696   -7.0546   -8.2403 C   0  0  0  0  0  0  0  0  0  0  0  0
 10 11  2  0
 12 11  1  0
 27 10  1  0
 10  9  1  0
 14 27  2  0
 18 19  2  0
 17 18  1  0
 19 20  1  0
 21 20  2  0
 22 21  1  0
 22 23  1  0
 17 22  2  0
 23 24  1  0
 24 26  1  0
 24 25  2  0
 28  5  2  0
  9 28  1  0
  5  6  1  0
  5  2  1  0
  7  6  2  0
  8  7  1  0
  9  8  2  0
  2  3  1  0
  2  1  1  0
  3  4  1  0
 14 13  1  0
 15 14  1  0
 13 12  2  0
 16 15  1  0
 16 17  1  0
M  CHG  1   1   1
M  END
$$$$
