
     RDKit          3D

 23 25  0  0  0  0  0  0  0  0999 V2000
   10.5684    3.4274   -8.7606 C   0  0  0  0  0  0  0  0  0  0  0  0
   11.5162    4.2531   -8.0138 O   0  0  0  0  0  0  0  0  0  0  0  0
   11.8984    3.7988   -6.7814 C   0  0  0  0  0  0  0  0  0  0  0  0
   11.1298    2.9987   -6.0475 C   0  0  0  0  0  0  0  0  0  0  0  0
   11.5759    2.5771   -4.7686 C   0  0  0  0  0  0  0  0  0  0  0  0
   10.7618    1.6875   -3.8998 C   0  0  0  0  0  0  0  0  0  0  0  0
    9.7513    2.4217   -3.2053 O   0  0  0  0  0  0  0  0  0  0  0  0
   10.0804    2.9690   -1.9096 C   0  0  0  0  0  0  0  0  0  0  0  0
   11.2342    2.8592   -1.4095 O   0  0  0  0  0  0  0  0  0  0  0  0
    8.9911    3.7328   -1.1550 C   0  0  0  0  0  0  0  0  0  0  0  0
    9.1438    4.4652   -0.0494 C   0  0  0  0  0  0  0  0  0  0  0  0
    7.9280    4.9545    0.2547 N   0  0  0  0  0  0  0  0  0  0  0  0
    7.0136    4.5344   -0.6074 N   0  0  0  0  0  0  0  0  0  0  0  0
    7.6410    3.7735   -1.5101 C   0  0  0  0  0  0  0  0  0  0  0  0
   12.8534    2.9965   -4.2885 C   0  0  0  0  0  0  0  0  0  0  0  0
   13.6272    3.7952   -5.0279 C   0  0  0  0  0  0  0  0  0  0  0  0
   14.9941    4.2397   -4.4822 C   0  0  0  0  0  0  0  0  0  0  0  0
   15.7058    3.4107   -3.5822 C   0  0  0  0  0  0  0  0  0  0  0  0
   16.9523    3.8645   -3.1091 C   0  0  0  0  0  0  0  0  0  0  0  0
   17.4237    5.1070   -3.5448 C   0  0  0  0  0  0  0  0  0  0  0  0
   16.7270    5.8541   -4.3858 N   0  0  0  0  0  0  0  0  0  0  0  0
   15.5450    5.4622   -4.8601 C   0  0  0  0  0  0  0  0  0  0  0  0
   13.1872    4.2264   -6.2719 C   0  0  0  0  0  0  0  0  0  0  0  0
 10 11  1  0
 11 12  2  0
 14 13  1  0
 13 12  1  0
 10 14  2  0
  5 15  2  0
 15 16  1  0
 17 18  2  0
 16 17  1  0
 17 22  1  0
 19 20  2  0
 20 21  1  0
 18 19  1  0
  2  1  1  0
  3  2  1  0
  4  3  2  0
  3 23  1  0
  5  4  1  0
  6  5  1  0
  7  6  1  0
  8  7  1  0
  8 10  1  0
  8  9  2  0
 16 23  2  0
 22 21  2  0
M  END
$$$$
