
     RDKit          3D

 24 27  0  0  0  0  0  0  0  0999 V2000
   17.8298    7.8952   -5.0247 C   0  0  0  0  0  0  0  0  0  0  0  0
   16.5736    7.7386   -4.3150 O   0  0  0  0  0  0  0  0  0  0  0  0
   16.1002    6.4041   -4.3203 C   0  0  0  0  0  0  0  0  0  0  0  0
   16.4343    5.5639   -3.2747 C   0  0  0  0  0  0  0  0  0  0  0  0
   15.9621    4.1874   -3.2710 C   0  0  0  0  0  0  0  0  0  0  0  0
   15.1984    3.7311   -4.2811 C   0  0  0  0  0  0  0  0  0  0  0  0
   14.7341    2.2900   -4.2188 C   0  0  0  0  0  0  0  0  0  0  0  0
   13.5513    2.0494   -5.0496 N   0  0  0  0  0  0  0  0  0  0  0  0
   13.5620    1.6115   -6.3124 C   0  0  0  0  0  0  0  0  0  0  0  0
   12.2541    1.5221   -6.7215 C   0  0  0  0  0  0  0  0  0  0  0  0
   11.4134    1.9290   -5.6352 C   0  0  0  0  0  0  0  0  0  0  0  0
   10.0010    2.0513   -5.4721 C   0  0  0  0  0  0  0  0  0  0  0  0
    9.4698    2.4956   -4.2405 C   0  0  0  0  0  0  0  0  0  0  0  0
   10.3436    2.8075   -3.2145 C   0  0  0  0  0  0  0  0  0  0  0  0
    9.8341    3.3706   -1.9228 C   0  0  0  0  0  0  0  0  0  0  0  0
    8.6328    3.9267   -1.7139 C   0  0  0  0  0  0  0  0  0  0  0  0
    8.6455    4.4063   -0.3432 C   0  0  0  0  0  0  0  0  0  0  0  0
    7.5917    5.0579    0.3687 N   0  0  0  0  0  0  0  0  0  0  0  0
    9.8680    4.1462    0.1550 N   0  0  0  0  0  0  0  0  0  0  0  0
   10.6061    3.5440   -0.8024 N   0  0  0  0  0  0  0  0  0  0  0  0
   11.7437    2.7116   -3.3658 C   0  0  0  0  0  0  0  0  0  0  0  0
   12.2634    2.2517   -4.6176 C   0  0  0  0  0  0  0  0  0  0  0  0
   14.8507    4.5787   -5.3421 C   0  0  0  0  0  0  0  0  0  0  0  0
   15.3273    5.9499   -5.3522 C   0  0  0  0  0  0  0  0  0  0  0  0
 22 11  2  0
  8 22  1  0
 22 21  1  0
  6  5  1  0
  7  6  1  0
  6 23  2  0
 23 24  1  0
 24  3  2  0
  5  4  2  0
  9 10  2  0
  8  9  1  0
 10 11  1  0
 16 17  2  0
 15 16  1  0
 17 18  1  0
 19 17  1  0
 20 19  1  0
 15 20  2  0
 14 15  1  0
 14 13  1  0
 21 14  2  0
 12 13  2  0
 11 12  1  0
  8  7  1  0
  3  2  1  0
  3  4  1  0
  2  1  1  0
M  END
$$$$
