
     RDKit          3D

 17 19  0  0  0  0  0  0  0  0999 V2000
    6.2103    3.6527   -2.4224 N   0  0  0  0  0  0  0  0  0  0  0  0
    7.2651    3.6738   -1.9731 C   0  0  0  0  0  0  0  0  0  0  0  0
    8.6181    3.7355   -1.3115 C   0  0  0  0  0  0  0  0  0  0  0  0
    9.8706    3.2986   -1.7337 C   0  0  0  0  0  0  0  0  0  0  0  0
   10.3458    2.7607   -3.0807 C   0  0  0  0  0  0  0  0  0  0  0  0
    9.4504    2.5440   -4.1563 C   0  0  0  0  0  0  0  0  0  0  0  0
    9.9655    2.1435   -5.3903 C   0  0  0  0  0  0  0  0  0  0  0  0
   11.3745    2.0102   -5.5572 C   0  0  0  0  0  0  0  0  0  0  0  0
   12.2139    1.6364   -6.6636 C   0  0  0  0  0  0  0  0  0  0  0  0
   13.5269    1.6790   -6.2183 C   0  0  0  0  0  0  0  0  0  0  0  0
   13.5221    2.0566   -4.9326 N   0  0  0  0  0  0  0  0  0  0  0  0
   12.2338    2.2674   -4.5078 C   0  0  0  0  0  0  0  0  0  0  0  0
   11.7274    2.6764   -3.2397 C   0  0  0  0  0  0  0  0  0  0  0  0
   10.7511    3.5892   -0.7803 N   0  0  0  0  0  0  0  0  0  0  0  0
   10.1136    4.1387    0.2847 N   0  0  0  0  0  0  0  0  0  0  0  0
    8.8002    4.2478   -0.0270 C   0  0  0  0  0  0  0  0  0  0  0  0
    7.7674    4.7859    0.8229 N   0  0  0  0  0  0  0  0  0  0  0  0
 12  8  1  0
 12 11  1  0
 13 12  2  0
  8  9  1  0
  9 10  2  0
  3 16  2  0
  4  3  1  0
  3  2  1  0
 16 17  1  0
 15 16  1  0
 14 15  1  0
  4 14  2  0
  5  4  1  0
  5  6  2  0
  5 13  1  0
  6  7  1  0
  7  8  2  0
 11 10  1  0
  2  1  3  0
M  END
$$$$
