
     RDKit          3D

 22 25  0  0  0  0  0  0  0  0999 V2000
    7.5963    5.0121    0.3613 N   0  0  0  0  0  0  0  0  0  0  0  0
    8.6594    4.4007   -0.3631 C   0  0  0  0  0  0  0  0  0  0  0  0
    8.6400    3.9414   -1.7010 C   0  0  0  0  0  0  0  0  0  0  0  0
    9.8545    3.4177   -1.9378 C   0  0  0  0  0  0  0  0  0  0  0  0
   10.3777    2.8621   -3.2355 C   0  0  0  0  0  0  0  0  0  0  0  0
    9.5156    2.5397   -4.2832 C   0  0  0  0  0  0  0  0  0  0  0  0
   10.0583    2.0925   -5.5157 C   0  0  0  0  0  0  0  0  0  0  0  0
   11.4718    1.9753   -5.6811 C   0  0  0  0  0  0  0  0  0  0  0  0
   12.3179    1.5575   -6.7635 C   0  0  0  0  0  0  0  0  0  0  0  0
   13.6503    1.6453   -6.3360 C   0  0  0  0  0  0  0  0  0  0  0  0
   13.6406    2.0739   -5.0937 N   0  0  0  0  0  0  0  0  0  0  0  0
   14.8344    2.2959   -4.3255 C   0  0  0  0  0  0  0  0  0  0  0  0
   15.2548    3.7821   -4.4071 C   0  0  0  0  0  0  0  0  0  0  0  0
   14.7506    4.6058   -5.4454 C   0  0  0  0  0  0  0  0  0  0  0  0
   15.1309    5.9597   -5.5175 C   0  0  0  0  0  0  0  0  0  0  0  0
   16.0241    6.4944   -4.5580 C   0  0  0  0  0  0  0  0  0  0  0  0
   16.5382    5.6714   -3.5278 C   0  0  0  0  0  0  0  0  0  0  0  0
   16.1518    4.3141   -3.4522 C   0  0  0  0  0  0  0  0  0  0  0  0
   12.3166    2.2924   -4.6548 C   0  0  0  0  0  0  0  0  0  0  0  0
   11.7563    2.7552   -3.3989 C   0  0  0  0  0  0  0  0  0  0  0  0
   10.5937    3.5958   -0.8476 N   0  0  0  0  0  0  0  0  0  0  0  0
    9.8779    4.1683    0.1138 N   0  0  0  0  0  0  0  0  0  0  0  0
  8  9  1  0
  8  7  2  0
 19  8  1  0
 13 18  1  0
 12 13  1  0
 13 14  2  0
 14 15  1  0
 15 16  2  0
 18 17  2  0
 10  9  2  0
 11 10  1  0
  2  1  1  0
  2 22  1  0
  3  2  2  0
 21 22  1  0
  4 21  2  0
  4  3  1  0
  5  4  1  0
  5  6  2  0
 20  5  1  0
  7  6  1  0
 19 20  2  0
 11 19  1  0
 11 12  1  0
 16 17  1  0
M  END
$$$$
