
     RDKit          3D

 24 27  0  0  0  0  0  0  0  0999 V2000
    6.3061    3.6624   -2.3378 N   0  0  0  0  0  0  0  0  0  0  0  0
    7.3654    3.7069   -1.9143 C   0  0  0  0  0  0  0  0  0  0  0  0
    8.7417    3.7963   -1.3019 C   0  0  0  0  0  0  0  0  0  0  0  0
    9.9533    3.3923   -1.7444 C   0  0  0  0  0  0  0  0  0  0  0  0
   10.3787    2.8518   -3.1014 C   0  0  0  0  0  0  0  0  0  0  0  0
    9.4220    2.6110   -4.1275 C   0  0  0  0  0  0  0  0  0  0  0  0
    9.8751    2.1919   -5.4067 C   0  0  0  0  0  0  0  0  0  0  0  0
   11.2828    2.0373   -5.6575 C   0  0  0  0  0  0  0  0  0  0  0  0
   12.0538    1.6576   -6.7926 C   0  0  0  0  0  0  0  0  0  0  0  0
   13.4295    1.6810   -6.4378 C   0  0  0  0  0  0  0  0  0  0  0  0
   13.4945    2.0756   -5.1411 N   0  0  0  0  0  0  0  0  0  0  0  0
   14.7643    2.2334   -4.3745 C   0  0  0  0  0  0  0  0  0  0  0  0
   15.2157    3.7363   -4.2815 C   0  0  0  0  0  0  0  0  0  0  0  0
   15.9724    4.1505   -3.1780 C   0  0  0  0  0  0  0  0  0  0  0  0
   16.3746    5.5162   -3.1260 C   0  0  0  0  0  0  0  0  0  0  0  0
   16.0053    6.3670   -4.1842 C   0  0  0  0  0  0  0  0  0  0  0  0
   15.2981    5.9273   -5.2262 N   0  0  0  0  0  0  0  0  0  0  0  0
   14.8944    4.6761   -5.3163 C   0  0  0  0  0  0  0  0  0  0  0  0
   12.2279    2.2909   -4.6314 C   0  0  0  0  0  0  0  0  0  0  0  0
   11.7828    2.7308   -3.3408 C   0  0  0  0  0  0  0  0  0  0  0  0
   10.8382    3.7093   -0.8434 N   0  0  0  0  0  0  0  0  0  0  0  0
   10.2125    4.2580    0.2506 N   0  0  0  0  0  0  0  0  0  0  0  0
    8.9483    4.3150    0.0096 C   0  0  0  0  0  0  0  0  0  0  0  0
    7.9232    4.8283    0.8309 N   0  0  0  0  0  0  0  0  0  0  0  0
  5  6  2  0
  7  6  1  0
 19  8  1  0
 19 20  2  0
 11 19  1  0
 13 14  2  0
 12 13  1  0
 13 18  1  0
 15 16  2  0
 16 17  1  0
 14 15  1  0
  8  9  1  0
  9 10  2  0
 23 24  1  0
 23 22  1  0
  3 23  2  0
 21 22  1  0
  4 21  2  0
  4  3  1  0
  5  4  1  0
  3  2  1  0
  2  1  3  0
 20  5  1  0
  8  7  2  0
 11 12  1  0
 11 10  1  0
 18 17  2  0
M  END
$$$$
