
     RDKit          3D

 24 27  0  0  0  0  0  0  0  0999 V2000
    6.3796    3.6740   -2.3423 N   0  0  0  0  0  0  0  0  0  0  0  0
    7.3956    3.7160   -1.9244 C   0  0  0  0  0  0  0  0  0  0  0  0
    8.7402    3.7937   -1.3068 C   0  0  0  0  0  0  0  0  0  0  0  0
   10.0012    3.3461   -1.7723 C   0  0  0  0  0  0  0  0  0  0  0  0
   10.3969    2.8058   -3.1261 C   0  0  0  0  0  0  0  0  0  0  0  0
    9.4663    2.6157   -4.1267 C   0  0  0  0  0  0  0  0  0  0  0  0
    9.8953    2.2147   -5.3928 C   0  0  0  0  0  0  0  0  0  0  0  0
   11.2997    2.0309   -5.6249 C   0  0  0  0  0  0  0  0  0  0  0  0
   12.0985    1.6418   -6.7944 C   0  0  0  0  0  0  0  0  0  0  0  0
   13.4102    1.6458   -6.4183 C   0  0  0  0  0  0  0  0  0  0  0  0
   13.4810    2.0264   -5.1063 N   0  0  0  0  0  0  0  0  0  0  0  0
   14.7234    2.1500   -4.3423 C   0  0  0  0  0  0  0  0  0  0  0  0
   15.1947    3.5991   -4.2694 C   0  0  0  0  0  0  0  0  0  0  0  0
   16.0362    4.0206   -3.2306 C   0  0  0  0  0  0  0  0  0  0  0  0
   16.4600    5.3282   -3.1856 C   0  0  0  0  0  0  0  0  0  0  0  0
   16.0698    6.2226   -4.1640 N   0  0  0  0  0  0  0  0  0  0  0  0
   15.3040    5.8922   -5.1541 C   0  0  0  0  0  0  0  0  0  0  0  0
   14.8265    4.5781   -5.2715 C   0  0  0  0  0  0  0  0  0  0  0  0
   12.2145    2.2654   -4.6223 C   0  0  0  0  0  0  0  0  0  0  0  0
   11.7834    2.6698   -3.3592 C   0  0  0  0  0  0  0  0  0  0  0  0
   10.8894    3.6428   -0.8868 N   0  0  0  0  0  0  0  0  0  0  0  0
   10.2720    4.2087    0.2205 N   0  0  0  0  0  0  0  0  0  0  0  0
    8.9726    4.3000   -0.0292 C   0  0  0  0  0  0  0  0  0  0  0  0
    7.9707    4.8378    0.8526 N   0  0  0  0  0  0  0  0  0  0  0  0
  5  6  2  0
  7  6  1  0
 19  8  1  0
 19 20  2  0
 11 19  1  0
 13 14  2  0
 12 13  1  0
 13 18  1  0
 14 15  1  0
 15 16  2  0
  8  9  1  0
  9 10  2  0
 23 24  1  0
 23 22  1  0
  3 23  2  0
 21 22  1  0
  4 21  2  0
  4  3  1  0
  5  4  1  0
  3  2  1  0
  2  1  3  0
 20  5  1  0
  8  7  2  0
 11 12  1  0
 11 10  1  0
 18 17  2  0
 17 16  1  0
M  END
$$$$
