
     RDKit          3D

 25 28  0  0  0  0  0  0  0  0999 V2000
    6.2604    3.6205   -2.4089 N   0  0  0  0  0  0  0  0  0  0  0  0
    7.3242    3.6793   -1.9912 C   0  0  0  0  0  0  0  0  0  0  0  0
    8.7005    3.7802   -1.3828 C   0  0  0  0  0  0  0  0  0  0  0  0
    9.9540    3.3710   -1.8237 C   0  0  0  0  0  0  0  0  0  0  0  0
   10.4033    2.8157   -3.1425 C   0  0  0  0  0  0  0  0  0  0  0  0
    9.4533    2.5429   -4.1772 C   0  0  0  0  0  0  0  0  0  0  0  0
    9.9157    2.1246   -5.4165 C   0  0  0  0  0  0  0  0  0  0  0  0
   11.3310    1.9798   -5.6417 C   0  0  0  0  0  0  0  0  0  0  0  0
   12.1180    1.5827   -6.7619 C   0  0  0  0  0  0  0  0  0  0  0  0
   13.4848    1.6492   -6.3811 C   0  0  0  0  0  0  0  0  0  0  0  0
   13.5288    2.0630   -5.1027 N   0  0  0  0  0  0  0  0  0  0  0  0
   14.7547    2.2583   -4.3436 C   0  0  0  0  0  0  0  0  0  0  0  0
   15.2674    3.6540   -4.4905 C   0  0  0  0  0  0  0  0  0  0  0  0
   14.5480    4.6531   -5.2169 C   0  0  0  0  0  0  0  0  0  0  0  0
   15.1180    5.9213   -5.2904 C   0  0  0  0  0  0  0  0  0  0  0  0
   16.3537    6.1609   -4.6627 C   0  0  0  0  0  0  0  0  0  0  0  0
   16.9923    5.1973   -3.9926 N   0  0  0  0  0  0  0  0  0  0  0  0
   16.4959    4.0007   -3.9012 C   0  0  0  0  0  0  0  0  0  0  0  0
   17.2076    3.0028   -3.1785 O   0  0  0  0  0  0  0  0  0  0  0  0
   12.2602    2.2722   -4.6106 C   0  0  0  0  0  0  0  0  0  0  0  0
   11.7989    2.7159   -3.3482 C   0  0  0  0  0  0  0  0  0  0  0  0
   10.8682    3.7073   -0.8727 N   0  0  0  0  0  0  0  0  0  0  0  0
   10.2300    4.2547    0.1684 N   0  0  0  0  0  0  0  0  0  0  0  0
    8.8946    4.3160   -0.1179 C   0  0  0  0  0  0  0  0  0  0  0  0
    7.8899    4.8546    0.7582 N   0  0  0  0  0  0  0  0  0  0  0  0
 11 10  1  0
  9 10  2  0
 20 11  1  0
 20  8  1  0
 21 20  2  0
  5 21  1  0
  5  6  2  0
  4  5  1  0
  7  8  2  0
  6  7  1  0
  3  2  1  0
  2  1  3  0
  3 24  2  0
 24 23  1  0
 24 25  1  0
 18 19  2  0
 18 17  1  0
 13 18  1  0
 17 16  1  0
 15 16  2  0
 14 15  1  0
 13 14  2  0
 12 13  1  0
 11 12  1  0
  8  9  1  0
  4  3  1  0
  4 22  2  0
 23 22  1  0
M  END
$$$$
