
     RDKit          3D

 29 33  0  0  0  0  0  0  0  0999 V2000
    7.5830    5.0320    0.1374 N   0  0  0  0  0  0  0  0  0  0  0  0
    8.6645    4.3884   -0.5584 C   0  0  0  0  0  0  0  0  0  0  0  0
    8.6606    3.8850   -1.8799 C   0  0  0  0  0  0  0  0  0  0  0  0
    9.9467    3.3086   -2.0763 C   0  0  0  0  0  0  0  0  0  0  0  0
   10.4437    2.7404   -3.3400 C   0  0  0  0  0  0  0  0  0  0  0  0
    9.5442    2.4777   -4.4069 C   0  0  0  0  0  0  0  0  0  0  0  0
   10.0692    2.0077   -5.6300 C   0  0  0  0  0  0  0  0  0  0  0  0
   11.4832    1.8378   -5.7484 C   0  0  0  0  0  0  0  0  0  0  0  0
   12.3142    1.4194   -6.7868 C   0  0  0  0  0  0  0  0  0  0  0  0
   13.6732    1.4489   -6.3096 C   0  0  0  0  0  0  0  0  0  0  0  0
   13.6555    1.8762   -5.0938 N   0  0  0  0  0  0  0  0  0  0  0  0
   14.8344    2.0524   -4.2145 C   0  0  0  0  0  0  0  0  0  0  0  0
   15.5201    3.4179   -4.2991 C   0  0  0  0  0  0  0  0  0  0  0  0
   14.9230    4.5915   -4.9795 C   0  0  0  0  0  0  0  0  0  0  0  0
   15.5967    5.7701   -5.0165 C   0  0  0  0  0  0  0  0  0  0  0  0
   16.8950    5.8808   -4.3985 C   0  0  0  0  0  0  0  0  0  0  0  0
   17.6944    7.2017   -4.4195 C   0  0  0  0  0  0  0  0  0  0  0  0
   17.2060    8.1116   -3.7164 N   0  0  0  0  0  4  0  0  0  0  0  0
   17.8841    9.3360   -3.9581 C   0  0  0  0  0  0  0  0  0  0  0  0
   18.1885   10.2422   -2.7552 C   0  0  0  0  0  0  0  0  0  0  0  0
   17.2771   10.0690   -1.6798 C   0  0  0  0  0  0  0  0  0  0  0  0
   17.3396    8.7128   -1.2441 C   0  0  0  0  0  0  0  0  0  0  0  0
   16.9454    7.7304   -2.3393 C   0  0  0  0  0  0  0  0  0  0  0  0
   17.4587    4.7568   -3.7736 C   0  0  0  0  0  0  0  0  0  0  0  0
   16.7467    3.5208   -3.7322 C   0  0  0  0  0  0  0  0  0  0  0  0
   12.3440    2.1273   -4.6987 C   0  0  0  0  0  0  0  0  0  0  0  0
   11.8354    2.6017   -3.4572 C   0  0  0  0  0  0  0  0  0  0  0  0
   10.6932    3.5135   -0.9957 N   0  0  0  0  0  0  0  0  0  0  0  0
    9.9220    4.1624   -0.0311 N   0  0  0  0  0  0  0  0  0  0  0  0
  8  7  1  0
  7  6  2  0
 10  9  2  0
 11 10  1  0
 12 11  1  0
 13 12  1  0
 14 13  2  0
 15 14  1  0
 16 17  1  0
 18 17  1  0
 18 19  1  0
 19 20  1  0
 20 21  1  0
 22 21  1  0
 18 23  1  0
 23 22  1  0
 13 25  1  0
 25 24  2  0
  2  1  1  0
  2 29  1  0
  3  2  2  0
 28 29  1  0
  4 28  2  0
  5  4  1  0
  4  3  1  0
 27  5  2  0
  5  6  1  0
 26 27  1  0
 26  8  2  0
 11 26  1  0
  8  9  1  0
 15 16  2  0
 16 24  1  0
M  CHG  1  18   1
M  END
$$$$
