
     RDKit          3D

 24 27  0  0  0  0  0  0  0  0999 V2000
   13.0631    6.2527   -7.1596 C   0  0  0  0  0  0  0  0  0  0  0  0
   14.0264    6.8870   -6.2882 O   0  0  0  0  0  0  0  0  0  0  0  0
   14.7942    6.0300   -5.4656 C   0  0  0  0  0  0  0  0  0  0  0  0
   15.9000    6.5147   -4.8212 C   0  0  0  0  0  0  0  0  0  0  0  0
   16.6597    5.6780   -3.9928 C   0  0  0  0  0  0  0  0  0  0  0  0
   16.2923    4.3339   -3.8135 C   0  0  0  0  0  0  0  0  0  0  0  0
   15.1778    3.8415   -4.4621 C   0  0  0  0  0  0  0  0  0  0  0  0
   14.7734    2.3780   -4.2708 C   0  0  0  0  0  0  0  0  0  0  0  0
   13.6125    2.0900   -5.0517 N   0  0  0  0  0  0  0  0  0  0  0  0
   13.6402    1.6129   -6.3221 C   0  0  0  0  0  0  0  0  0  0  0  0
   12.3338    1.4771   -6.7518 C   0  0  0  0  0  0  0  0  0  0  0  0
   11.4767    1.8832   -5.6754 C   0  0  0  0  0  0  0  0  0  0  0  0
   10.0644    1.9655   -5.5187 C   0  0  0  0  0  0  0  0  0  0  0  0
    9.5075    2.4228   -4.3096 C   0  0  0  0  0  0  0  0  0  0  0  0
   10.3723    2.7872   -3.2796 C   0  0  0  0  0  0  0  0  0  0  0  0
    9.8379    3.3682   -1.9797 C   0  0  0  0  0  0  0  0  0  0  0  0
    8.5824    3.9180   -1.7659 C   0  0  0  0  0  0  0  0  0  0  0  0
    8.5927    4.3932   -0.4418 C   0  0  0  0  0  0  0  0  0  0  0  0
    7.5495    5.0029    0.2622 N   0  0  0  0  0  0  0  0  0  0  0  0
    9.8283    4.1502    0.0586 N   0  0  0  0  0  0  0  0  0  0  0  0
   10.5793    3.5487   -0.8924 N   0  0  0  0  0  0  0  0  0  0  0  0
   11.7595    2.7359   -3.4324 C   0  0  0  0  0  0  0  0  0  0  0  0
   12.3248    2.2662   -4.6403 C   0  0  0  0  0  0  0  0  0  0  0  0
   14.4197    4.6762   -5.2893 C   0  0  0  0  0  0  0  0  0  0  0  0
 11 12  1  0
 12 13  2  0
 23 12  1  0
 24  7  1  0
  7  8  1  0
  7  6  2  0
  5  6  1  0
  4  5  2  0
  3 24  2  0
  2  1  1  0
 10 11  2  0
 18 19  1  0
 18 20  2  0
 17 18  1  0
 21 20  1  0
 16 21  1  0
 16 17  2  0
 15 16  1  0
 15 14  2  0
 22 15  1  0
 13 14  1  0
 23 22  2  0
  9 23  1  0
  8  9  1  0
  9 10  1  0
  3  4  1  0
  3  2  1  0
M  END
$$$$
