
     RDKit          3D

 17 18  0  0  0  0  0  0  0  0999 V2000
   10.1073    3.3410   -8.6524 C   0  0  0  0  0  0  0  0  0  0  0  0
   11.1652    4.1305   -8.2217 O   0  0  0  0  0  0  0  0  0  0  0  0
   11.7009    3.7704   -6.9494 C   0  0  0  0  0  0  0  0  0  0  0  0
   12.8511    4.3521   -6.5087 C   0  0  0  0  0  0  0  0  0  0  0  0
   13.3822    3.9939   -5.2525 C   0  0  0  0  0  0  0  0  0  0  0  0
   12.7175    3.0562   -4.4584 C   0  0  0  0  0  0  0  0  0  0  0  0
   11.5467    2.4742   -4.9007 C   0  0  0  0  0  0  0  0  0  0  0  0
   10.8251    1.4830   -4.0437 C   0  0  0  0  0  0  0  0  0  0  0  0
    9.6948    2.1338   -3.4005 O   0  0  0  0  0  0  0  0  0  0  0  0
    9.9841    2.6759   -2.1257 C   0  0  0  0  0  0  0  0  0  0  0  0
   11.1049    2.5294   -1.6282 O   0  0  0  0  0  0  0  0  0  0  0  0
    8.9046    3.4712   -1.3772 C   0  0  0  0  0  0  0  0  0  0  0  0
    7.5803    3.5935   -1.7484 C   0  0  0  0  0  0  0  0  0  0  0  0
    6.9821    4.3661   -0.8525 N   0  0  0  0  0  0  0  0  0  0  0  0
    7.8765    4.7640    0.0952 N   0  0  0  0  0  0  0  0  0  0  0  0
    9.0782    4.1992   -0.2128 C   0  0  0  0  0  0  0  0  0  0  0  0
   11.0295    2.8241   -6.1469 C   0  0  0  0  0  0  0  0  0  0  0  0
 12 13  1  0
 13 14  2  0
 16 15  1  0
 15 14  1  0
 12 16  2  0
  7  6  1  0
  6  5  2  0
  3  4  2  0
  5  4  1  0
  2  1  1  0
  3  2  1  0
 17  3  1  0
  7 17  2  0
  8  7  1  0
  9  8  1  0
 10  9  1  0
 10 12  1  0
 10 11  2  0
M  END
$$$$
