
     RDKit          3D

 15 16  0  0  0  0  0  0  0  0999 V2000
   11.1224    2.5676   -1.6233 O   0  0  0  0  0  0  0  0  0  0  0  0
   10.0142    2.7061   -2.0983 C   0  0  0  0  0  0  0  0  0  0  0  0
    9.7054    2.1706   -3.3764 O   0  0  0  0  0  0  0  0  0  0  0  0
   10.8068    1.5123   -4.0381 C   0  0  0  0  0  0  0  0  0  0  0  0
   11.5550    2.5220   -4.9086 C   0  0  0  0  0  0  0  0  0  0  0  0
   12.7953    2.9965   -4.5014 C   0  0  0  0  0  0  0  0  0  0  0  0
   13.4651    3.9167   -5.2917 C   0  0  0  0  0  0  0  0  0  0  0  0
   12.9040    4.3708   -6.4740 C   0  0  0  0  0  0  0  0  0  0  0  0
   11.6644    3.8938   -6.8867 C   0  0  0  0  0  0  0  0  0  0  0  0
   10.9920    2.9714   -6.0971 C   0  0  0  0  0  0  0  0  0  0  0  0
    8.9246    3.4809   -1.3518 C   0  0  0  0  0  0  0  0  0  0  0  0
    7.6106    3.5808   -1.7367 C   0  0  0  0  0  0  0  0  0  0  0  0
    6.9910    4.3412   -0.8339 N   0  0  0  0  0  0  0  0  0  0  0  0
    7.8629    4.7598    0.1202 N   0  0  0  0  0  0  0  0  0  0  0  0
    9.0738    4.2178   -0.1793 C   0  0  0  0  0  0  0  0  0  0  0  0
  5 10  1  0
  4  5  1  0
  5  6  2  0
  8  7  2  0
  9  8  1  0
 10  9  2  0
  2  1  2  0
  2 11  1  0
  3  2  1  0
 11 12  1  0
 11 15  2  0
 12 13  2  0
 14 13  1  0
 15 14  1  0
  3  4  1  0
  6  7  1  0
M  END
$$$$
