
     RDKit          3D

 21 22  0  0  0  0  0  0  0  0999 V2000
    8.9485    6.5429  -11.8752 C   0  0  0  0  0  0  0  0  0  0  0  0
    8.8049    5.6136  -10.8072 O   0  0  0  0  0  0  0  0  0  0  0  0
    9.9887    5.2740  -10.1199 C   0  0  0  0  0  0  0  0  0  0  0  0
   11.0443    5.6865  -10.5561 O   0  0  0  0  0  0  0  0  0  0  0  0
    9.9327    4.4294   -8.8473 C   0  0  0  0  0  0  0  0  0  0  0  0
   11.0950    3.5850   -8.6411 O   0  0  0  0  0  0  0  0  0  0  0  0
   11.5655    3.3953   -7.2657 C   0  0  0  0  0  0  0  0  0  0  0  0
   12.7550    4.0020   -6.8732 C   0  0  0  0  0  0  0  0  0  0  0  0
   13.2562    3.8419   -5.5750 C   0  0  0  0  0  0  0  0  0  0  0  0
   12.5569    3.0549   -4.6583 C   0  0  0  0  0  0  0  0  0  0  0  0
   11.3609    2.4360   -5.0310 C   0  0  0  0  0  0  0  0  0  0  0  0
   10.6176    1.5827   -3.9818 C   0  0  0  0  0  0  0  0  0  0  0  0
    9.5722    2.2921   -3.2946 O   0  0  0  0  0  0  0  0  0  0  0  0
    9.8586    2.7573   -1.9775 C   0  0  0  0  0  0  0  0  0  0  0  0
   10.9353    2.5565   -1.4540 O   0  0  0  0  0  0  0  0  0  0  0  0
    8.8216    3.5596   -1.2021 C   0  0  0  0  0  0  0  0  0  0  0  0
    7.4776    3.6695   -1.4943 C   0  0  0  0  0  0  0  0  0  0  0  0
    6.9483    4.4753   -0.5838 N   0  0  0  0  0  0  0  0  0  0  0  0
    7.8920    4.8936    0.3110 N   0  0  0  0  0  0  0  0  0  0  0  0
    9.0777    4.3342   -0.0620 C   0  0  0  0  0  0  0  0  0  0  0  0
   10.8677    2.5976   -6.3344 C   0  0  0  0  0  0  0  0  0  0  0  0
 16 20  2  0
 16 14  1  0
 16 17  1  0
 20 19  1  0
 14 15  2  0
 14 13  1  0
 13 12  1  0
 12 11  1  0
 11 10  1  0
 11 21  2  0
 10  9  2  0
  9  8  1  0
  8  7  2  0
  7  6  1  0
  7 21  1  0
  6  5  1  0
  5  3  1  0
  3  2  1  0
  3  4  2  0
  2  1  1  0
 17 18  2  0
 18 19  1  0
M  END
$$$$
