
     RDKit          3D

 77 78  0  0  0  0  0  0  0  0999 V2000
   14.0389   -9.0617   -4.6973 C   0  0  0  0  0  0  0  0  0  0  0  0
   12.9480   -8.8460   -5.7136 C   0  0  0  0  0  0  0  0  0  0  0  0
   12.1390  -10.1048   -6.0153 C   0  0  0  0  0  0  0  0  0  0  0  0
   11.3844   -9.9337   -7.3294 C   0  0  0  0  0  0  0  0  0  0  0  0
   11.1864  -10.4408   -4.8551 C   0  0  0  0  0  0  0  0  0  0  0  0
   10.6658  -11.7900   -5.0456 N   0  0  0  0  0  0  0  0  0  0  0  0
    9.9229  -12.3677   -4.1092 C   0  0  0  0  0  0  0  0  0  0  0  0
    9.7068  -11.8421   -3.0215 O   0  0  0  0  0  0  0  0  0  0  0  0
    9.3326  -13.7322   -4.4618 C   0  0  0  0  0  0  0  0  0  0  0  0
   10.2475  -14.8378   -3.9413 C   0  0  0  0  0  0  0  0  0  0  0  0
    9.6227  -16.2207   -4.0040 C   0  0  0  0  0  0  0  0  0  0  0  0
   10.5681  -17.3102   -3.5455 C   0  0  0  0  0  0  0  0  0  0  0  0
   11.7131  -16.9842   -3.1692 O   0  0  0  0  0  0  0  0  0  0  0  0
   10.1665  -18.4933   -3.5625 O   0  0  0  0  0  0  0  0  0  0  0  0
    9.1090  -13.8988   -5.8988 N   0  0  0  0  0  0  0  0  0  0  0  0
    8.3372  -13.0581   -6.6053 C   0  0  0  0  0  0  0  0  0  0  0  0
    8.2046  -13.3693   -8.0717 C   0  0  0  0  0  0  0  0  0  0  0  0
    7.7645  -12.0826   -6.1120 O   0  0  0  0  0  0  0  0  0  0  0  0
   10.0627   -9.4244   -4.6775 C   0  0  0  0  0  0  0  0  0  0  0  0
   10.2727   -8.3684   -4.0631 O   0  0  0  0  0  0  0  0  0  0  0  0
    8.8626   -9.7061   -5.2042 N   0  0  0  0  0  0  0  0  0  0  0  0
    7.7077   -8.8353   -5.0295 C   0  0  0  0  0  0  0  0  0  0  0  0
    7.0239   -8.4970   -6.3533 C   0  0  0  0  0  0  0  0  0  0  0  0
    7.9085   -7.8145   -7.3509 C   0  0  0  0  0  0  0  0  0  0  0  0
    8.4349   -6.4859   -6.8599 C   0  0  0  0  0  0  0  0  0  0  0  0
    7.4135   -5.4399   -6.8243 N   0  0  0  0  0  0  0  0  0  0  0  0
    7.4687   -4.3485   -6.0768 C   0  0  0  0  0  0  0  0  0  0  0  0
    6.4965   -3.4595   -6.1446 N   0  0  0  0  0  0  0  0  0  0  0  0
    8.4862   -4.1508   -5.2443 N   0  0  0  0  0  0  0  0  0  0  0  0
    6.6915   -9.4146   -4.0556 C   0  0  0  0  0  0  0  0  0  0  0  0
    5.5254   -9.0200   -4.0621 O   0  0  0  0  0  0  0  0  0  0  0  0
    7.1103  -10.3302   -3.1957 N   0  0  0  0  0  0  0  0  0  0  0  0
    6.2007  -10.8360   -2.1838 C   0  0  0  0  0  0  0  0  0  0  0  0
    6.7769  -12.1085   -1.5639 C   0  0  0  0  0  0  0  0  0  0  0  0
    5.8614  -12.7338   -0.5232 C   0  0  0  0  0  0  0  0  0  0  0  0
    6.4932  -13.9479    0.1393 C   0  0  0  0  0  0  0  0  0  0  0  0
    6.5632  -15.0970   -0.7567 N   0  0  0  0  0  0  0  0  0  0  0  0
    5.5545  -15.9321   -0.9864 C   0  0  0  0  0  0  0  0  0  0  0  0
    5.7153  -16.9527   -1.8167 N   0  0  0  0  0  0  0  0  0  0  0  0
    4.3827  -15.7463   -0.3920 N   0  0  0  0  0  0  0  0  0  0  0  0
    5.9790   -9.7847   -1.1041 C   0  0  0  0  0  0  0  0  0  0  0  0
    6.9269   -9.1793   -0.5947 O   0  0  0  0  0  0  0  0  0  0  0  0
    4.7233   -9.5657   -0.7527 N   0  0  0  0  0  0  0  0  0  0  0  0
    4.3789   -8.5881    0.2808 C   0  0  0  0  0  0  0  0  0  0  0  0
    4.6758   -9.2078    1.6440 C   0  0  0  0  0  0  0  0  0  0  0  0
    4.2927  -10.3652    1.8845 O   0  0  0  0  0  0  0  0  0  0  0  0
    5.3398   -8.4930    2.5424 N   0  0  0  0  0  0  0  0  0  0  0  0
    5.9423   -7.1598    2.3655 C   0  0  0  0  0  0  0  0  0  0  0  0
    6.4051   -6.8089    3.7484 C   0  0  0  0  0  0  0  0  0  0  0  0
    6.5814   -8.0464    4.4881 C   0  0  0  0  0  0  0  0  0  0  0  0
    5.6183   -9.0635    3.8639 C   0  0  0  0  0  0  0  0  0  0  0  0
    4.3670   -9.2121    4.7173 C   0  0  0  0  0  0  0  0  0  0  0  0
    3.3960   -8.4772    4.5696 O   0  0  0  0  0  0  0  0  0  0  0  0
    4.4110  -10.1753    5.6359 N   0  0  0  0  0  0  0  0  0  0  0  0
    3.4347  -10.2895    6.7113 C   0  0  0  0  0  0  0  0  0  0  0  0
    2.8058  -11.6867    6.7585 C   0  0  0  0  0  0  0  0  0  0  0  0
    1.6841  -11.9147    5.7423 C   0  0  0  0  0  0  0  0  0  0  0  0
    0.4399  -11.0670    6.0085 C   0  0  0  0  0  0  0  0  0  0  0  0
   -0.0626  -10.4540    5.0415 O   0  0  0  0  0  0  0  0  0  0  0  0
   -0.0406  -11.0160    7.1727 O   0  0  0  0  0  0  0  0  0  0  0  0
    4.1246  -10.0098    8.0436 C   0  0  0  0  0  0  0  0  0  0  0  0
    5.3199  -10.2738    8.2070 O   0  0  0  0  0  0  0  0  0  0  0  0
    3.3706   -9.4696    8.9980 N   0  0  0  0  0  0  0  0  0  0  0  0
    3.9616   -9.1196   10.2877 C   0  0  0  0  0  0  0  0  0  0  0  0
    3.0341   -8.2203   11.1069 C   0  0  0  0  0  0  0  0  0  0  0  0
    3.5955   -7.8500   12.4517 C   0  0  0  0  0  0  0  0  0  0  0  0
    4.8390   -7.2492   12.5532 C   0  0  0  0  0  0  0  0  0  0  0  0
    5.3626   -6.9118   13.7868 C   0  0  0  0  0  0  0  0  0  0  0  0
    4.6446   -7.1717   14.9346 C   0  0  0  0  0  0  0  0  0  0  0  0
    3.4078   -7.7749   14.8469 C   0  0  0  0  0  0  0  0  0  0  0  0
    2.8859   -8.1088   13.6118 C   0  0  0  0  0  0  0  0  0  0  0  0
    4.3084  -10.3723   11.0887 C   0  0  0  0  0  0  0  0  0  0  0  0
    3.5720  -11.3567   11.0605 O   0  0  0  0  0  0  0  0  0  0  0  0
    5.3294  -10.4144   11.7729 O   0  0  0  0  0  0  0  0  0  0  0  0
    2.9069   -8.2169    0.1700 C   0  0  0  0  0  0  0  0  0  0  0  0
    2.5099   -7.2296    1.2541 C   0  0  0  0  0  0  0  0  0  0  0  0
    2.5739   -7.6514   -1.2070 C   0  0  0  0  0  0  0  0  0  0  0  0
 16 18  2  0
 16 17  1  0
 16 15  1  0
 15  9  1  0
  9  7  1  0
  9 10  1  0
  7  8  2  0
  7  6  1  0
 10 11  1  0
 11 12  1  0
 12 13  2  0
 12 14  1  0
  6  5  1  0
  5 19  1  0
  5  3  1  0
 19 20  2  0
 19 21  1  0
  3  2  1  0
  3  4  1  0
  2  1  1  0
 21 22  1  0
 22 30  1  0
 22 23  1  0
 30 31  2  0
 30 32  1  0
 23 24  1  0
 24 25  1  0
 25 26  1  0
 26 27  1  0
 27 29  1  0
 27 28  2  0
 32 33  1  0
 33 41  1  0
 33 34  1  0
 41 42  2  0
 41 43  1  0
 34 35  1  0
 35 36  1  0
 36 37  1  0
 37 38  1  0
 38 40  1  0
 38 39  2  0
 43 44  1  0
 44 45  1  0
 44 75  1  0
 45 46  2  0
 45 47  1  0
 75 76  1  0
 75 77  1  0
 47 51  1  0
 47 48  1  0
 51 52  1  0
 51 50  1  0
 52 53  2  0
 52 54  1  0
 50 49  1  0
 49 48  1  0
 54 55  1  0
 55 61  1  0
 55 56  1  0
 61 62  2  0
 61 63  1  0
 56 57  1  0
 57 58  1  0
 58 60  1  0
 58 59  2  0
 63 64  1  0
 64 72  1  0
 64 65  1  0
 72 73  2  0
 72 74  1  0
 65 66  1  0
 66 67  2  0
 66 71  1  0
 67 68  1  0
 71 70  2  0
 68 69  2  0
 70 69  1  0
M  END
$$$$
