
     RDKit          3D

 50 51  0  0  0  0  0  0  0  0999 V2000
    7.3782   -7.9392   -6.8717 C   0  0  0  0  0  0  0  0  0  0  0  0
    7.8257   -8.0924   -5.4154 C   0  0  0  0  0  0  0  0  0  0  0  0
    9.2005   -8.5597   -5.3127 N   0  0  0  0  0  0  0  0  0  0  0  0
    9.5641   -9.7752   -5.7082 C   0  0  0  0  0  0  0  0  0  0  0  0
    8.7768  -10.6008   -6.1752 O   0  0  0  0  0  0  0  0  0  0  0  0
   11.0376  -10.1069   -5.5495 C   0  0  0  0  0  0  0  0  0  0  0  0
   11.7945   -9.8322   -6.8480 C   0  0  0  0  0  0  0  0  0  0  0  0
   13.2275  -10.3180   -6.7943 C   0  0  0  0  0  0  0  0  0  0  0  0
   13.9844  -10.1711   -5.6402 C   0  0  0  0  0  0  0  0  0  0  0  0
   15.2893  -10.6194   -5.5805 C   0  0  0  0  0  0  0  0  0  0  0  0
   15.8499  -11.2264   -6.6801 C   0  0  0  0  0  0  0  0  0  0  0  0
   17.1518  -11.6708   -6.6311 O   0  0  0  0  0  0  0  0  0  0  0  0
   15.1189  -11.3869   -7.8352 C   0  0  0  0  0  0  0  0  0  0  0  0
   13.8133  -10.9402   -7.8855 C   0  0  0  0  0  0  0  0  0  0  0  0
   11.1947  -11.5098   -5.1960 N   0  0  0  0  0  0  0  0  0  0  0  0
   11.7061  -11.9095   -4.0389 C   0  0  0  0  0  0  0  0  0  0  0  0
   11.9924  -11.1310   -3.1285 O   0  0  0  0  0  0  0  0  0  0  0  0
   11.9184  -13.4156   -3.8953 C   0  0  0  0  0  0  0  0  0  0  0  0
   13.3200  -13.7030   -3.5950 N   0  0  0  0  0  0  0  0  0  0  0  0
   11.0118  -14.0015   -2.8141 C   0  0  0  0  0  0  0  0  0  0  0  0
   11.0480  -15.5266   -2.7626 C   0  0  0  0  0  0  0  0  0  0  0  0
   10.0507  -16.0887   -1.7576 C   0  0  0  0  0  0  0  0  0  0  0  0
   10.0677  -17.5517   -1.7197 N   0  0  0  0  0  0  0  0  0  0  0  0
    9.2955  -18.3389   -2.4666 C   0  0  0  0  0  0  0  0  0  0  0  0
    9.3880  -19.6567   -2.3534 N   0  0  0  0  0  0  0  0  0  0  0  0
    8.4307  -17.8146   -3.3264 N   0  0  0  0  0  0  0  0  0  0  0  0
    6.8589   -8.9780   -4.6323 C   0  0  0  0  0  0  0  0  0  0  0  0
    5.6992   -9.1560   -5.0329 O   0  0  0  0  0  0  0  0  0  0  0  0
    7.3270   -9.5028   -3.5023 N   0  0  0  0  0  0  0  0  0  0  0  0
    6.4956  -10.2732   -2.5803 C   0  0  0  0  0  0  0  0  0  0  0  0
    6.1998   -9.4161   -1.3546 C   0  0  0  0  0  0  0  0  0  0  0  0
    7.1195   -8.8912   -0.7089 O   0  0  0  0  0  0  0  0  0  0  0  0
    4.9193   -9.2966   -1.0254 N   0  0  0  0  0  0  0  0  0  0  0  0
    4.4993   -8.4360    0.0859 C   0  0  0  0  0  0  0  0  0  0  0  0
    4.8990   -9.0879    1.4019 C   0  0  0  0  0  0  0  0  0  0  0  0
    4.7440  -10.3145    1.5584 O   0  0  0  0  0  0  0  0  0  0  0  0
    5.4084   -8.3314    2.3760 N   0  0  0  0  0  0  0  0  0  0  0  0
    5.9335   -6.9572    2.2754 C   0  0  0  0  0  0  0  0  0  0  0  0
    6.2666   -6.6112    3.7054 C   0  0  0  0  0  0  0  0  0  0  0  0
    6.4016   -7.8468    4.4630 C   0  0  0  0  0  0  0  0  0  0  0  0
    5.6097   -8.9169    3.7050 C   0  0  0  0  0  0  0  0  0  0  0  0
    4.2697   -9.1987    4.3823 C   0  0  0  0  0  0  0  0  0  0  0  0
    3.9339  -10.3790    4.3977 O   0  0  0  0  0  0  0  0  0  0  0  0
    3.6945   -8.2100    4.8279 O   0  0  0  0  0  0  0  0  0  0  0  0
    2.9894   -8.2256    0.0289 C   0  0  0  0  0  0  0  0  0  0  0  0
    2.5274   -7.3510    1.1713 C   0  0  0  0  0  0  0  0  0  0  0  0
    2.5622   -7.6001   -1.2970 C   0  0  0  0  0  0  0  0  0  0  0  0
    7.1640  -11.6021   -2.1911 C   0  0  0  0  0  0  0  0  0  0  0  0
    6.3395  -12.3332   -1.1415 C   0  0  0  0  0  0  0  0  0  0  0  0
    7.3546  -12.4835   -3.4194 C   0  0  0  0  0  0  0  0  0  0  0  0
 19 18  1  0
 18 16  1  0
 18 20  1  0
 16 17  2  0
 16 15  1  0
 20 21  1  0
 21 22  1  0
 22 23  1  0
 23 24  1  0
 24 26  1  0
 24 25  2  0
 15  6  1  0
  6  4  1  0
  6  7  1  0
  4  5  2  0
  4  3  1  0
  7  8  1  0
  8  9  2  0
  8 14  1  0
  9 10  1  0
 14 13  2  0
 10 11  2  0
 13 11  1  0
 11 12  1  0
  3  2  1  0
  2 27  1  0
  2  1  1  0
 27 28  2  0
 27 29  1  0
 29 30  1  0
 30 31  1  0
 30 48  1  0
 31 32  2  0
 31 33  1  0
 48 49  1  0
 48 50  1  0
 33 34  1  0
 34 35  1  0
 34 45  1  0
 35 36  2  0
 35 37  1  0
 45 46  1  0
 45 47  1  0
 37 41  1  0
 37 38  1  0
 41 42  1  0
 41 40  1  0
 42 43  2  0
 42 44  1  0
 40 39  1  0
 39 38  1  0
M  CHG  1  19   1
M  END
$$$$
