
     RDKit          3D

 94 96  0  0  0  0  0  0  0  0999 V2000
   14.0445   -9.1610   -4.6274 C   0  0  0  0  0  0  0  0  0  0  0  0
   13.0730   -8.8219   -5.7431 C   0  0  0  0  0  0  0  0  0  0  0  0
   12.2074  -10.0026   -6.1795 C   0  0  0  0  0  0  0  0  0  0  0  0
   11.4503   -9.6882   -7.4679 C   0  0  0  0  0  0  0  0  0  0  0  0
   11.2264  -10.3909   -5.0580 C   0  0  0  0  0  0  0  0  0  0  0  0
   10.6803  -11.7140   -5.3263 N   0  0  0  0  0  0  0  0  0  0  0  0
   10.0162  -12.3750   -4.3796 C   0  0  0  0  0  0  0  0  0  0  0  0
    9.7547  -11.8875   -3.2750 O   0  0  0  0  0  0  0  0  0  0  0  0
    9.5812  -13.7874   -4.7500 C   0  0  0  0  0  0  0  0  0  0  0  0
    9.3426  -13.8567   -6.1870 N   0  0  0  0  0  0  0  0  0  0  0  0
   10.6607  -14.7870   -4.3384 C   0  0  0  0  0  0  0  0  0  0  0  0
   10.9180  -14.8473   -2.8393 C   0  0  0  0  0  0  0  0  0  0  0  0
    9.7878  -15.5109   -2.0730 C   0  0  0  0  0  0  0  0  0  0  0  0
    9.7834  -15.4265   -0.8267 O   0  0  0  0  0  0  0  0  0  0  0  0
    8.9047  -16.1174   -2.7154 O   0  0  0  0  0  0  0  0  0  0  0  0
   10.1152   -9.3654   -4.8638 C   0  0  0  0  0  0  0  0  0  0  0  0
   10.3103   -8.3622   -4.1603 O   0  0  0  0  0  0  0  0  0  0  0  0
    8.9364   -9.5838   -5.4594 N   0  0  0  0  0  0  0  0  0  0  0  0
    7.7953   -8.7096   -5.2377 C   0  0  0  0  0  0  0  0  0  0  0  0
    7.1941   -8.2414   -6.5599 C   0  0  0  0  0  0  0  0  0  0  0  0
    8.1331   -7.3469   -7.3411 C   0  0  0  0  0  0  0  0  0  0  0  0
    8.4028   -6.0784   -6.5932 C   0  0  0  0  0  0  0  0  0  0  0  0
    7.3149   -5.1150   -6.7216 N   0  0  0  0  0  0  0  0  0  0  0  0
    7.1895   -4.0273   -5.9756 C   0  0  0  0  0  0  0  0  0  0  0  0
    6.2154   -3.1833   -6.2096 N   0  0  0  0  0  0  0  0  0  0  0  0
    8.0382   -3.7879   -4.9952 N   0  0  0  0  0  0  0  0  0  0  0  0
    6.7552   -9.3663   -4.3449 C   0  0  0  0  0  0  0  0  0  0  0  0
    5.5626   -9.1065   -4.4816 O   0  0  0  0  0  0  0  0  0  0  0  0
    7.1740  -10.2118   -3.4214 N   0  0  0  0  0  0  0  0  0  0  0  0
    6.2541  -10.7441   -2.4302 C   0  0  0  0  0  0  0  0  0  0  0  0
    6.8147  -12.0252   -1.8100 C   0  0  0  0  0  0  0  0  0  0  0  0
    5.8973  -12.6263   -0.7450 C   0  0  0  0  0  0  0  0  0  0  0  0
    6.3681  -13.9850   -0.2229 C   0  0  0  0  0  0  0  0  0  0  0  0
    5.3594  -14.5751    0.6546 N   0  0  0  0  0  0  0  0  0  0  0  0
    4.4512  -15.4717    0.2720 C   0  0  0  0  0  0  0  0  0  0  0  0
    3.5748  -15.9348    1.1531 N   0  0  0  0  0  0  0  0  0  0  0  0
    4.4203  -15.9145   -0.9789 N   0  0  0  0  0  0  0  0  0  0  0  0
    6.0401   -9.7152   -1.3284 C   0  0  0  0  0  0  0  0  0  0  0  0
    6.9983   -9.1416   -0.8002 O   0  0  0  0  0  0  0  0  0  0  0  0
    4.7856   -9.4814   -0.9886 N   0  0  0  0  0  0  0  0  0  0  0  0
    4.4443   -8.5438    0.0830 C   0  0  0  0  0  0  0  0  0  0  0  0
    4.8189   -9.1656    1.4229 C   0  0  0  0  0  0  0  0  0  0  0  0
    4.5371  -10.3605    1.6519 O   0  0  0  0  0  0  0  0  0  0  0  0
    5.4274   -8.4144    2.3317 N   0  0  0  0  0  0  0  0  0  0  0  0
    5.9514   -7.0493    2.1669 C   0  0  0  0  0  0  0  0  0  0  0  0
    6.3206   -6.6414    3.5607 C   0  0  0  0  0  0  0  0  0  0  0  0
    6.5463   -7.8623    4.3370 C   0  0  0  0  0  0  0  0  0  0  0  0
    5.7693   -8.9869    3.6369 C   0  0  0  0  0  0  0  0  0  0  0  0
    4.5259   -9.3781    4.4150 C   0  0  0  0  0  0  0  0  0  0  0  0
    3.4582   -8.7823    4.2681 O   0  0  0  0  0  0  0  0  0  0  0  0
    4.6763  -10.4131    5.2313 N   0  0  0  0  0  0  0  0  0  0  0  0
    3.6785  -10.8190    6.2082 C   0  0  0  0  0  0  0  0  0  0  0  0
    3.3891  -12.3193    6.0894 C   0  0  0  0  0  0  0  0  0  0  0  0
    2.8501  -12.7606    4.7276 C   0  0  0  0  0  0  0  0  0  0  0  0
    2.6799  -14.2738    4.6100 C   0  0  0  0  0  0  0  0  0  0  0  0
    3.1305  -15.0058    5.5162 O   0  0  0  0  0  0  0  0  0  0  0  0
    2.0916  -14.7338    3.6056 O   0  0  0  0  0  0  0  0  0  0  0  0
    4.2396  -10.5186    7.5929 C   0  0  0  0  0  0  0  0  0  0  0  0
    5.4339  -10.7142    7.8380 O   0  0  0  0  0  0  0  0  0  0  0  0
    3.3928  -10.0220    8.4873 N   0  0  0  0  0  0  0  0  0  0  0  0
    3.8175   -9.6895    9.8417 C   0  0  0  0  0  0  0  0  0  0  0  0
    3.8221   -8.1749   10.0726 C   0  0  0  0  0  0  0  0  0  0  0  0
    4.0769   -7.7807   11.4999 C   0  0  0  0  0  0  0  0  0  0  0  0
    5.3710   -7.6152   11.9712 C   0  0  0  0  0  0  0  0  0  0  0  0
    5.6049   -7.2538   13.2889 C   0  0  0  0  0  0  0  0  0  0  0  0
    4.5371   -7.0549   14.1481 C   0  0  0  0  0  0  0  0  0  0  0  0
    3.2437   -7.2152   13.6877 C   0  0  0  0  0  0  0  0  0  0  0  0
    3.0193   -7.5756   12.3716 C   0  0  0  0  0  0  0  0  0  0  0  0
    2.8771  -10.3545   10.8342 C   0  0  0  0  0  0  0  0  0  0  0  0
    1.6552  -10.2693   10.6819 O   0  0  0  0  0  0  0  0  0  0  0  0
    3.4497  -10.9968   11.8543 N   0  0  0  0  0  0  0  0  0  0  0  0
    2.6547  -11.6714   12.8635 C   0  0  0  0  0  0  0  0  0  0  0  0
    3.2060  -11.5919   14.2743 C   0  0  0  0  0  0  0  0  0  0  0  0
    2.9625  -12.4884   15.0884 O   0  0  0  0  0  0  0  0  0  0  0  0
    3.9384  -10.5262   14.5849 N   0  0  0  0  0  0  0  0  0  0  0  0
    4.5302  -10.3449   15.8925 C   0  0  0  0  0  0  0  0  0  0  0  0
    3.7561   -9.3765   16.7650 C   0  0  0  0  0  0  0  0  0  0  0  0
    2.5717   -9.1021   16.5459 O   0  0  0  0  0  0  0  0  0  0  0  0
    4.4419   -8.8548   17.7788 N   0  0  0  0  0  0  0  0  0  0  0  0
    3.8564   -7.8766   18.6883 C   0  0  0  0  0  0  0  0  0  0  0  0
    4.3583   -8.1062   20.1141 C   0  0  0  0  0  0  0  0  0  0  0  0
    4.0311   -9.4765   20.6652 C   0  0  0  0  0  0  0  0  0  0  0  0
    2.9529   -9.6648   21.5246 C   0  0  0  0  0  0  0  0  0  0  0  0
    2.6497  -10.9172   22.0322 C   0  0  0  0  0  0  0  0  0  0  0  0
    3.4306  -12.0019   21.6774 C   0  0  0  0  0  0  0  0  0  0  0  0
    3.1459  -13.2537   22.1672 O   0  0  0  0  0  0  0  0  0  0  0  0
    4.5060  -11.8398   20.8278 C   0  0  0  0  0  0  0  0  0  0  0  0
    4.7980  -10.5833   20.3256 C   0  0  0  0  0  0  0  0  0  0  0  0
    4.2147   -6.4650   18.2370 C   0  0  0  0  0  0  0  0  0  0  0  0
    5.1308   -6.2763   17.4361 O   0  0  0  0  0  0  0  0  0  0  0  0
    3.5932   -5.4927   18.6672 O   0  0  0  0  0  0  0  0  0  0  0  0
    2.9461   -8.2121    0.0257 C   0  0  0  0  0  0  0  0  0  0  0  0
    2.5682   -7.2599    1.1346 C   0  0  0  0  0  0  0  0  0  0  0  0
    2.5573   -7.6266   -1.3388 C   0  0  0  0  0  0  0  0  0  0  0  0
 10  9  1  0
  9  7  1  0
  9 11  1  0
  7  8  2  0
  7  6  1  0
 11 12  1  0
 12 13  1  0
 13 15  1  0
 13 14  2  0
  6  5  1  0
  5 16  1  0
  5  3  1  0
 16 17  2  0
 16 18  1  0
  3  2  1  0
  3  4  1  0
  2  1  1  0
 18 19  1  0
 19 27  1  0
 19 20  1  0
 27 28  2  0
 27 29  1  0
 20 21  1  0
 21 22  1  0
 22 23  1  0
 23 24  1  0
 24 26  1  0
 24 25  2  0
 29 30  1  0
 30 38  1  0
 30 31  1  0
 38 39  2  0
 38 40  1  0
 31 32  1  0
 32 33  1  0
 33 34  1  0
 34 35  1  0
 35 37  1  0
 35 36  2  0
 40 41  1  0
 41 42  1  0
 41 92  1  0
 42 43  2  0
 42 44  1  0
 92 93  1  0
 92 94  1  0
 44 48  1  0
 44 45  1  0
 48 49  1  0
 48 47  1  0
 49 50  2  0
 49 51  1  0
 47 46  1  0
 46 45  1  0
 51 52  1  0
 52 58  1  0
 52 53  1  0
 58 59  2  0
 58 60  1  0
 53 54  1  0
 54 55  1  0
 55 56  2  0
 55 57  1  0
 60 61  1  0
 61 69  1  0
 61 62  1  0
 69 70  2  0
 69 71  1  0
 62 63  1  0
 63 64  2  0
 63 68  1  0
 64 65  1  0
 68 67  2  0
 65 66  2  0
 67 66  1  0
 71 72  1  0
 72 73  1  0
 73 74  2  0
 73 75  1  0
 75 76  1  0
 76 77  1  0
 77 78  2  0
 77 79  1  0
 79 80  1  0
 80 89  1  0
 80 81  1  0
 89 90  2  0
 89 91  1  0
 81 82  1  0
 82 83  2  0
 82 88  1  0
 83 84  1  0
 88 87  2  0
 84 85  2  0
 87 85  1  0
 85 86  1  0
M  CHG  1  10   1
M  END
$$$$
