
     RDKit          3D

 58 60  0  0  0  0  0  0  0  0999 V2000
    6.3630  -12.3608   -1.3401 C   0  0  0  0  0  0  0  0  0  0  0  0
    7.1605  -11.6367   -2.4129 C   0  0  0  0  0  0  0  0  0  0  0  0
    7.3430  -12.5313   -3.6216 C   0  0  0  0  0  0  0  0  0  0  0  0
    6.4538  -10.3330   -2.8173 C   0  0  0  0  0  0  0  0  0  0  0  0
    7.2590   -9.5559   -3.7601 N   0  0  0  0  0  0  0  0  0  0  0  0
    6.7595   -9.0115   -4.8675 C   0  0  0  0  0  0  0  0  0  0  0  0
    5.5789   -9.1606   -5.2160 O   0  0  0  0  0  0  0  0  0  0  0  0
    7.6848   -8.1715   -5.7131 C   0  0  0  0  0  0  0  0  0  0  0  0
    9.0892   -8.3957   -5.4494 N   0  0  0  0  0  0  0  0  0  0  0  0
    9.6799   -9.5206   -5.8235 C   0  0  0  0  0  0  0  0  0  0  0  0
    9.0766  -10.4446   -6.3801 O   0  0  0  0  0  0  0  0  0  0  0  0
   11.1790   -9.6115   -5.5589 C   0  0  0  0  0  0  0  0  0  0  0  0
   11.9508   -9.4233   -6.8701 C   0  0  0  0  0  0  0  0  0  0  0  0
   11.7447   -8.0472   -7.4905 C   0  0  0  0  0  0  0  0  0  0  0  0
   12.6037   -6.9866   -7.1983 C   0  0  0  0  0  0  0  0  0  0  0  0
   12.3892   -5.7020   -7.7475 C   0  0  0  0  0  0  0  0  0  0  0  0
   11.3128   -5.4836   -8.5822 C   0  0  0  0  0  0  0  0  0  0  0  0
   10.4372   -6.5311   -8.8736 C   0  0  0  0  0  0  0  0  0  0  0  0
   10.6620   -7.8067   -8.3216 C   0  0  0  0  0  0  0  0  0  0  0  0
   11.4816  -10.8882   -4.9286 N   0  0  0  0  0  0  0  0  0  0  0  0
   11.0346  -11.1471   -3.6975 C   0  0  0  0  0  0  0  0  0  0  0  0
   10.3590  -10.3357   -3.0405 O   0  0  0  0  0  0  0  0  0  0  0  0
   11.3852  -12.5019   -3.1133 C   0  0  0  0  0  0  0  0  0  0  0  0
   10.6981  -13.5925   -3.7837 N   0  0  0  0  0  0  0  0  0  0  0  0
    6.1692   -9.4704   -1.5939 C   0  0  0  0  0  0  0  0  0  0  0  0
    7.0933   -8.9248   -0.9730 O   0  0  0  0  0  0  0  0  0  0  0  0
    4.8934   -9.3636   -1.2389 N   0  0  0  0  0  0  0  0  0  0  0  0
    4.4881   -8.4874   -0.1320 C   0  0  0  0  0  0  0  0  0  0  0  0
    4.9668   -9.0863    1.1875 C   0  0  0  0  0  0  0  0  0  0  0  0
    4.8566  -10.3123    1.3699 O   0  0  0  0  0  0  0  0  0  0  0  0
    5.4902   -8.2902    2.1163 N   0  0  0  0  0  0  0  0  0  0  0  0
    5.8310   -6.8562    1.9834 C   0  0  0  0  0  0  0  0  0  0  0  0
    6.8579   -6.6318    3.0532 C   0  0  0  0  0  0  0  0  0  0  0  0
    6.6431   -7.6334    4.0820 C   0  0  0  0  0  0  0  0  0  0  0  0
    6.0045   -8.8399    3.3836 C   0  0  0  0  0  0  0  0  0  0  0  0
    4.9298   -9.4349    4.2858 C   0  0  0  0  0  0  0  0  0  0  0  0
    3.7270   -9.3572    4.0520 O   0  0  0  0  0  0  0  0  0  0  0  0
    5.4398  -10.0254    5.3752 N   0  0  0  0  0  0  0  0  0  0  0  0
    4.6563  -10.4154    6.5364 C   0  0  0  0  0  0  0  0  0  0  0  0
    4.4920  -11.9482    6.6036 C   0  0  0  0  0  0  0  0  0  0  0  0
    3.3436  -12.3656    5.8844 O   0  0  0  0  0  0  0  0  0  0  0  0
    5.3363   -9.8822    7.7990 C   0  0  0  0  0  0  0  0  0  0  0  0
    6.5647   -9.7326    7.8524 O   0  0  0  0  0  0  0  0  0  0  0  0
    4.5136   -9.5665    8.7986 N   0  0  0  0  0  0  0  0  0  0  0  0
    4.9577   -9.1615   10.1401 C   0  0  0  0  0  0  0  0  0  0  0  0
    4.1312   -9.9289   11.1921 C   0  0  0  0  0  0  0  0  0  0  0  0
    4.2244  -11.4290   11.0554 C   0  0  0  0  0  0  0  0  0  0  0  0
    5.0327  -12.1704   11.9065 C   0  0  0  0  0  0  0  0  0  0  0  0
    5.1361  -13.5446   11.7705 C   0  0  0  0  0  0  0  0  0  0  0  0
    4.4323  -14.1910   10.7828 C   0  0  0  0  0  0  0  0  0  0  0  0
    3.6249  -13.4676    9.9253 C   0  0  0  0  0  0  0  0  0  0  0  0
    3.5213  -12.0955   10.0642 C   0  0  0  0  0  0  0  0  0  0  0  0
    6.4501   -9.3776   10.4076 C   0  0  0  0  0  0  0  0  0  0  0  0
    6.8468  -10.2370   11.2034 O   0  0  0  0  0  0  0  0  0  0  0  0
    7.3136   -8.7002    9.8378 O   0  0  0  0  0  0  0  0  0  0  0  0
    2.9665   -8.3039   -0.1382 C   0  0  0  0  0  0  0  0  0  0  0  0
    2.5181   -7.5441    1.1046 C   0  0  0  0  0  0  0  0  0  0  0  0
    2.5277   -7.5684   -1.4297 C   0  0  0  0  0  0  0  0  0  0  0  0
 24 23  1  0
 23 21  1  0
 21 22  2  0
 21 20  1  0
 20 12  1  0
 12 10  1  0
 12 13  1  0
 10 11  2  0
 10  9  1  0
 13 14  1  0
 14 15  2  0
 14 19  1  0
 15 16  1  0
 19 18  2  0
 16 17  2  0
 18 17  1  0
  9  8  1  0
  8  6  1  0
  6  7  2  0
  6  5  1  0
  5  4  1  0
  4 25  1  0
  4  2  1  0
 25 26  2  0
 25 27  1  0
  2  1  1  0
  2  3  1  0
 27 28  1  0
 28 29  1  0
 28 56  1  0
 29 30  2  0
 29 31  1  0
 56 57  1  0
 56 58  1  0
 31 35  1  0
 31 32  1  0
 35 36  1  0
 35 34  1  0
 36 37  2  0
 36 38  1  0
 34 33  1  0
 33 32  1  0
 38 39  1  0
 39 42  1  0
 39 40  1  0
 42 43  2  0
 42 44  1  0
 40 41  1  0
 44 45  1  0
 45 53  1  0
 45 46  1  0
 53 54  2  0
 53 55  1  0
 46 47  1  0
 47 48  2  0
 47 52  1  0
 48 49  1  0
 52 51  2  0
 49 50  2  0
 51 50  1  0
M  CHG  1  24   1
M  END
$$$$
