
     RDKit          3D

 26 30  0  0  0  0  0  0  0  0999 V2000
    2.6683    9.1202   15.1601 C   0  0  0  0  0  0  0  0  0  0  0  0
    1.6589    8.0954   14.7652 N   0  0  0  0  0  0  0  0  0  0  0  0
    0.4066    8.2145   15.5932 C   0  0  0  0  0  0  0  0  0  0  0  0
   -0.7034    7.2940   15.1009 C   0  0  0  0  0  0  0  0  0  0  0  0
   -1.1325    7.5060   13.6349 C   0  0  0  0  0  0  0  0  0  0  0  0
   -1.5574    8.9688   13.4412 C   0  0  0  0  0  0  0  0  0  0  0  0
   -2.4200    6.5797   13.1660 C   0  0  0  0  0  0  0  0  0  0  0  0
   -3.5770    6.9536   13.9767 N   0  0  0  0  0  0  0  0  0  0  0  0
   -4.1469    6.2311   14.9582 C   0  0  0  0  0  0  0  0  0  0  0  0
   -5.1974    6.5868   15.4855 O   0  0  0  0  0  0  0  0  0  0  0  0
   -3.4508    4.9939   15.3652 C   0  0  0  0  0  0  0  0  0  0  0  0
   -3.7446    4.4164   16.6067 C   0  0  0  0  0  0  0  0  0  0  0  0
   -3.1044    3.2491   16.9974 C   0  0  0  0  0  0  0  0  0  0  0  0
   -2.1582    2.6665   16.1733 C   0  0  0  0  0  0  0  0  0  0  0  0
   -1.8596    3.2317   14.9434 C   0  0  0  0  0  0  0  0  0  0  0  0
   -2.5187    4.3794   14.5103 C   0  0  0  0  0  0  0  0  0  0  0  0
   -2.1530    5.0418   13.1954 C   0  0  0  0  0  0  0  0  0  0  0  0
   -2.9864    4.5846   12.0111 C   0  0  0  0  0  0  0  0  0  0  0  0
   -3.3819    3.3171   11.6097 C   0  0  0  0  0  0  0  0  0  0  0  0
   -4.1631    3.1799   10.4728 C   0  0  0  0  0  0  0  0  0  0  0  0
   -4.4787    4.2907    9.6959 C   0  0  0  0  0  0  0  0  0  0  0  0
   -4.0628    5.5627   10.0724 C   0  0  0  0  0  0  0  0  0  0  0  0
   -3.2858    5.6940   11.2221 C   0  0  0  0  0  0  0  0  0  0  0  0
   -2.7529    6.8509   11.7682 N   0  0  0  0  0  0  0  0  0  0  0  0
    0.1962    7.2517   12.8916 C   0  0  0  0  0  0  0  0  0  0  0  0
    1.3428    8.1778   13.2977 C   0  0  0  0  0  0  0  0  0  0  0  0
 23 22  2  0
 22 21  1  0
 18 23  1  0
 24 23  1  0
 18 19  2  0
 17 18  1  0
  7 24  1  0
  7 17  1  0
  7  8  1  0
  5  7  1  0
  8  9  1  0
  9 11  1  0
  9 10  2  0
 17 16  1  0
 16 11  2  0
 16 15  1  0
 15 14  2  0
 14 13  1  0
 11 12  1  0
 12 13  2  0
  4  3  1  0
  4  5  1  0
  3  2  1  0
  5 25  1  0
 25 26  1  0
  2  1  1  0
 21 20  2  0
 20 19  1  0
  5  6  1  0
  2 26  1  0
M  CHG  1   2   1
M  END
$$$$
