
     RDKit          3D

 16 18  0  0  0  0  0  0  0  0999 V2000
   -4.7607    5.5597   14.4439 C   0  0  0  0  0  0  0  0  0  0  0  0
   -3.3569    6.0970   14.7205 C   0  0  0  0  0  0  0  0  0  0  0  0
   -3.3154    6.5527   16.1773 C   0  0  0  0  0  0  0  0  0  0  0  0
   -2.2628    5.0553   14.4272 C   0  0  0  0  0  0  0  0  0  0  0  0
   -1.7543    5.3135   12.9770 C   0  0  0  0  0  0  0  0  0  0  0  0
   -0.3437    4.7331   12.7996 C   0  0  0  0  0  0  0  0  0  0  0  0
   -2.6928    4.7660   11.9276 C   0  0  0  0  0  0  0  0  0  0  0  0
   -3.2129    3.4877   11.7613 C   0  0  0  0  0  0  0  0  0  0  0  0
   -4.1297    3.2498   10.7456 C   0  0  0  0  0  0  0  0  0  0  0  0
   -4.5341    4.2756    9.9012 C   0  0  0  0  0  0  0  0  0  0  0  0
   -4.0470    5.5656   10.0694 C   0  0  0  0  0  0  0  0  0  0  0  0
   -3.1326    5.7966   11.0982 C   0  0  0  0  0  0  0  0  0  0  0  0
   -2.5316    7.0031   11.4509 N   0  0  0  0  0  0  0  0  0  0  0  0
   -1.9457    6.8600   12.7794 C   0  0  0  0  0  0  0  0  0  0  0  0
   -0.7365    7.7641   12.9427 C   0  0  0  0  0  0  0  0  0  0  0  0
   -3.0204    7.2551   13.7772 N   0  0  0  0  0  0  0  0  0  0  0  0
  5  4  1  0
  4  2  1  0
  5  6  1  0
 12 11  2  0
  7 12  1  0
 12 13  1  0
  8  9  1  0
  7  8  2  0
 14 15  1  0
  9 10  2  0
  2  1  1  0
  5  7  1  0
  5 14  1  0
  2  3  1  0
  2 16  1  0
 11 10  1  0
 14 13  1  0
 14 16  1  0
M  CHG  1  16   1
M  END
$$$$
