
     RDKit          3D

 23 24  0  0  0  0  0  0  0  0999 V2000
    3.2007   -5.2306    6.8604 O   0  0  0  0  0  0  0  0  0  0  0  0
    2.8160   -4.5257    7.8277 C   0  0  0  0  0  0  0  0  0  0  0  0
    3.2064   -4.8094    9.0870 N   0  0  0  0  0  0  0  0  0  0  0  0
    3.0311   -3.8796   10.1835 C   0  0  0  0  0  0  0  0  0  0  0  0
    4.3862   -3.1694   10.2655 C   0  0  0  0  0  0  0  0  0  0  0  0
    4.6788   -2.6329    8.8842 N   0  0  0  0  0  0  0  0  0  0  0  0
    6.0108   -2.3217    8.7709 O   0  0  0  0  0  0  0  0  0  0  0  0
    6.1359   -1.7702    7.2363 S   0  0  0  0  0  0  0  0  0  0  0  0
    7.0625   -2.6527    6.6164 O   0  0  0  0  0  0  0  0  0  0  0  0
    4.7744   -1.9608    6.8741 O   0  0  0  0  0  0  0  0  0  0  0  0
    6.4683   -0.4009    7.4278 O   0  0  0  0  0  0  0  0  0  0  0  0
    5.4970   -4.2207   10.6063 C   0  0  0  0  0  0  0  0  0  0  0  0
    5.4727   -5.4479    9.6569 C   0  0  0  0  0  0  0  0  0  0  0  0
    4.0464   -5.9235    9.3858 C   0  0  0  0  0  0  0  0  0  0  0  0
    3.5144   -6.7513   10.5359 C   0  0  0  0  0  0  0  0  0  0  0  0
    2.4625   -6.4301   11.1387 O   0  0  0  0  0  0  0  0  0  0  0  0
    4.1019   -7.8770   10.9061 N   0  0  0  0  0  0  0  0  0  0  0  0
    3.5428   -8.6930   11.9758 C   0  0  0  0  0  0  0  0  0  0  0  0
    4.1792  -10.0852   12.0345 C   0  0  0  0  0  0  0  0  0  0  0  0
    3.4191  -10.9787   13.0272 C   0  0  0  0  0  0  0  0  0  0  0  0
    3.4070  -10.3928   14.4101 N   0  0  0  0  0  0  0  0  0  0  0  0
    3.0172   -8.9235   14.4740 C   0  0  0  0  0  0  0  0  0  0  0  0
    3.6845   -8.0421   13.3800 C   0  0  0  0  0  0  0  0  0  0  0  0
 12 13  1  0
  5 12  1  0
 19 20  1  0
 20 21  1  0
 23 22  1  0
 22 21  1  0
  5  4  1  0
  4  3  1  0
  3  2  1  0
  2  1  2  0
 13 14  1  0
 14 15  1  0
  3 14  1  0
 18 19  1  0
 18 23  1  0
 17 18  1  0
 15 17  1  0
 15 16  2  0
  6  5  1  0
  7  6  1  0
  8  9  2  0
  8 10  2  0
  8 11  1  0
  7  8  1  0
M  CHG  2   6   1  21   1
M  END
$$$$
