
     RDKit          3D

 32 34  0  0  0  0  0  0  0  0999 V2000
   -0.5663    0.0164   -6.9325 O   0  0  0  0  0  0  0  0  0  0  0  0
   -1.0540    0.6585   -5.9999 C   0  0  0  0  0  0  0  0  0  0  0  0
   -1.3298    0.1245   -4.8066 N   0  0  0  0  0  0  0  0  0  0  0  0
   -1.1299   -1.2898   -4.5169 C   0  0  0  0  0  0  0  0  0  0  0  0
   -0.0070   -1.5468   -3.5396 C   0  0  0  0  0  0  0  0  0  0  0  0
   -0.1786   -1.2905   -2.1818 C   0  0  0  0  0  0  0  0  0  0  0  0
    0.8296   -1.5856   -1.2915 C   0  0  0  0  0  0  0  0  0  0  0  0
    0.5927   -1.2412    0.3952 Cl  0  0  0  0  0  0  0  0  0  0  0  0
    2.0184   -2.1310   -1.7098 C   0  0  0  0  0  0  0  0  0  0  0  0
    2.2021   -2.3755   -3.0563 C   0  0  0  0  0  0  0  0  0  0  0  0
    1.2039   -2.0972   -3.9867 C   0  0  0  0  0  0  0  0  0  0  0  0
    1.4250   -2.4213   -5.4409 C   0  0  0  0  0  0  0  0  0  0  0  0
    2.1132   -1.3937   -6.1039 O   0  0  0  0  0  0  0  0  0  0  0  0
   -1.4180    2.1311   -6.1698 C   0  0  0  0  0  0  0  0  0  0  0  0
   -2.6330    2.3090   -7.0874 C   0  0  0  0  0  0  0  0  0  0  0  0
   -2.3717    3.6396   -7.7830 C   0  0  0  0  0  0  0  0  0  0  0  0
   -0.8778    3.6645   -7.9972 C   0  0  0  0  0  0  0  0  0  0  0  0
   -0.3600    2.8520   -6.8829 N   0  0  0  0  0  0  0  0  0  0  0  0
    0.9261    2.7646   -6.5136 C   0  0  0  0  0  0  0  0  0  0  0  0
    1.3062    2.0355   -5.6004 O   0  0  0  0  0  0  0  0  0  0  0  0
    1.8733    3.6063   -7.3069 C   0  0  0  0  0  0  0  0  0  0  0  0
    3.2317    3.2461   -6.9317 N   0  0  0  0  0  0  0  0  0  0  0  0
    4.4666    4.1216   -7.5563 S   0  0  0  0  0  0  0  0  0  0  0  0
    4.0392    4.5804   -8.8435 O   0  0  0  0  0  0  0  0  0  0  0  0
    5.6314    3.2957   -7.4623 O   0  0  0  0  0  0  0  0  0  0  0  0
    4.6977    5.5499   -6.5064 C   0  0  0  0  0  0  0  0  0  0  0  0
    3.4513    6.3744   -6.3257 C   0  0  0  0  0  0  0  0  0  0  0  0
    2.9578    7.1508   -7.3656 C   0  0  0  0  0  0  0  0  0  0  0  0
    1.7484    7.8162   -7.2383 C   0  0  0  0  0  0  0  0  0  0  0  0
    1.0225    7.7197   -6.0694 C   0  0  0  0  0  0  0  0  0  0  0  0
    1.5156    6.9735   -5.0186 C   0  0  0  0  0  0  0  0  0  0  0  0
    2.7251    6.3089   -5.1432 C   0  0  0  0  0  0  0  0  0  0  0  0
  5  6  2  0
  6  7  1  0
 10  9  1  0
  7  9  2  0
 11 10  2  0
 27 28  2  0
 28 29  1  0
 14 15  1  0
 14 18  1  0
  2 14  1  0
 15 16  1  0
 17 16  1  0
 11 12  1  0
 12 13  1  0
  5 11  1  0
  4  5  1  0
 26 27  1  0
 27 32  1  0
 23 26  1  0
 18 19  1  0
 19 21  1  0
 19 20  2  0
 18 17  1  0
 29 30  2  0
 31 30  1  0
 32 31  2  0
 23 24  2  0
 23 25  2  0
 22 23  1  0
 21 22  1  0
  2  1  2  0
  3  2  1  0
  3  4  1  0
  7  8  1  0
M  END
$$$$
