
     RDKit          3D

 28 30  0  0  0  0  0  0  0  0999 V2000
    5.4478   15.1657    5.2127 N   0  0  0  0  0  4  0  0  0  0  0  0
    6.5707   14.2466    5.2699 C   0  0  0  0  0  0  0  0  0  0  0  0
    6.1467   12.8524    4.8322 C   0  0  0  0  0  0  0  0  0  0  0  0
    6.2498   11.8905    5.9906 N   0  0  0  0  0  4  0  0  0  0  0  0
    5.7124   10.5643    5.6394 C   0  0  2  0  0  0  0  0  0  0  0  0
    4.1861   10.6707    5.4946 C   0  0  0  0  0  0  0  0  0  0  0  0
    3.5136    9.2974    5.4064 C   0  0  0  0  0  0  0  0  0  0  0  0
    3.8771    8.4084    6.6278 C   0  0  1  0  0  0  0  0  0  0  0  0
    3.2184    7.0391    6.4544 C   0  0  0  0  0  0  0  0  0  0  0  0
    1.6690    7.1475    6.5268 C   0  0  0  0  0  0  0  0  0  0  0  0
    1.1310    7.2699    7.5845 O   0  0  0  0  0  0  0  0  0  0  0  0
    0.8573    7.1016    5.2788 N   0  0  0  0  0  0  0  0  0  0  0  0
   -0.6314    7.2230    5.3288 C   0  0  1  0  0  0  0  0  0  0  0  0
   -0.9025    8.6468    5.7614 C   0  0  0  0  0  0  0  0  0  0  0  0
   -0.5130    9.5906    4.5813 C   0  0  0  0  0  0  0  0  0  0  0  0
    0.1616   10.7845    4.7705 C   0  0  0  0  0  0  0  0  0  0  0  0
    0.4863   11.5701    3.6566 C   0  0  0  0  0  0  0  0  0  0  0  0
    0.1303   11.1444    2.3595 C   0  0  0  0  0  0  0  0  0  0  0  0
   -0.5499    9.9282    2.1799 C   0  0  0  0  0  0  0  0  0  0  0  0
   -0.9572    9.4247    0.7888 C   0  0  0  0  0  0  0  0  0  0  0  0
   -2.0998    9.6559    0.3337 O   0  0  0  0  0  0  0  0  0  0  0  0
   -0.1437    8.7569    0.0919 O   0  0  0  0  0  1  0  0  0  0  0  0
   -0.8580    9.1532    3.2779 C   0  0  0  0  0  0  0  0  0  0  0  0
   -1.5743    7.8797    3.0977 O   0  0  0  0  0  0  0  0  0  0  0  0
   -1.2146    6.8406    3.8994 B   0  0  0  0  0  0  0  0  0  0  0  0
   -0.2645    6.0961    3.2464 O   0  0  0  0  0  3  0  0  0  0  0  0
    5.3883    8.2364    6.7818 C   0  0  0  0  0  0  0  0  0  0  0  0
    6.1729    9.5671    6.7383 C   0  0  0  0  0  0  0  0  0  0  0  0
 13 25  1  0
 25 26  1  0
 25 24  1  0
 23 19  2  0
 15 23  1  0
 24 23  1  0
 19 20  1  0
 19 18  1  0
 20 22  1  0
 20 21  2  0
 17 18  2  0
 16 17  1  0
 15 16  2  0
 14 15  1  0
 13 14  1  0
 13 12  1  6
  9 10  1  0
 10 12  1  0
 10 11  2  0
  8  9  1  6
  7  8  1  0
  8 27  1  0
  6  7  1  0
  5  6  1  0
  5 28  1  0
  5  4  1  1
  3  2  1  0
  3  4  1  0
  2  1  1  0
 28 27  1  0
M  CHG  4   1   1   4   1  22  -1  26   1
M  END
$$$$
