
     RDKit          3D

 28 30  0  0  0  0  0  0  0  0999 V2000
   38.4076   54.1159  -66.6211 C   0  0  0  0  0  0  0  0  0  0  0  0
   37.1318   53.4401  -67.0935 C   0  0  0  0  0  0  0  0  0  0  0  0
   37.3950   52.4991  -68.2577 C   0  0  0  0  0  0  0  0  0  0  0  0
   36.1265   51.7759  -68.6760 C   0  0  0  0  0  0  0  0  0  0  0  0
   35.5463   51.0297  -67.5095 C   0  0  0  0  0  0  0  0  0  0  0  0
   35.2703   51.9911  -66.4351 N   0  0  0  0  0  0  0  0  0  0  0  0
   34.0384   51.6866  -65.4150 S   0  0  0  0  0  0  0  0  0  0  0  0
   33.0101   51.0877  -66.2030 O   0  0  0  0  0  0  0  0  0  0  0  0
   33.7745   52.9120  -64.7269 O   0  0  0  0  0  0  0  0  0  0  0  0
   34.5276   50.4692  -64.2022 C   0  0  0  0  0  0  0  0  0  0  0  0
   35.7649   49.8689  -64.3775 C   0  0  0  0  0  0  0  0  0  0  0  0
   36.2188   48.9061  -63.4807 C   0  0  0  0  0  0  0  0  0  0  0  0
   37.4795   48.2735  -63.6076 N   0  0  0  0  0  0  0  0  0  0  0  0
   38.3985   48.3990  -64.5909 C   0  0  0  0  0  0  0  0  0  0  0  0
   38.2675   49.1144  -65.5829 O   0  0  0  0  0  0  0  0  0  0  0  0
   39.6480   47.5661  -64.3685 C   0  0  0  0  0  0  0  0  0  0  0  0
   40.6892   47.7109  -65.3722 N   0  0  0  0  0  0  0  0  0  0  0  0
   41.6316   48.7532  -65.4036 C   0  0  0  0  0  0  0  0  0  0  0  0
   41.6816   49.6822  -64.6024 O   0  0  0  0  0  0  0  0  0  0  0  0
   42.5190   48.4890  -66.5894 C   0  0  0  0  0  0  0  0  0  0  0  0
   41.9547   47.2657  -67.1208 N   0  0  0  0  0  0  0  0  0  0  0  0
   40.9048   46.8178  -66.4086 C   0  0  0  0  0  0  0  0  0  0  0  0
   40.2348   45.8126  -66.6202 O   0  0  0  0  0  0  0  0  0  0  0  0
   35.4184   48.5433  -62.3998 C   0  0  0  0  0  0  0  0  0  0  0  0
   34.1787   49.1300  -62.2191 C   0  0  0  0  0  0  0  0  0  0  0  0
   33.7266   50.0873  -63.1144 C   0  0  0  0  0  0  0  0  0  0  0  0
   32.0169   50.8361  -62.7754 Br  0  0  0  0  0  0  0  0  0  0  0  0
   36.4846   52.6679  -65.9527 C   0  0  0  0  0  0  0  0  0  0  0  0
  5  4  1  0
  4  3  1  0
  6  5  1  0
 28  2  1  0
  6 28  1  0
 11 12  2  0
 10 11  1  0
 12 13  1  0
 12 24  1  0
  2  1  1  0
  2  3  1  0
  7  6  1  0
  7  8  2  0
  7  9  2  0
  7 10  1  0
 10 26  2  0
 13 14  1  0
 14 15  2  0
 14 16  1  0
 16 17  1  0
 17 18  1  0
 17 22  1  0
 18 19  2  0
 18 20  1  0
 20 21  1  0
 21 22  1  0
 22 23  2  0
 24 25  2  0
 25 26  1  0
 26 27  1  0
M  END
$$$$
