
     RDKit          3D

 33 36  0  0  0  0  0  0  0  0999 V2000
   35.5071   50.6547  -67.8232 C   0  0  0  0  0  0  0  0  0  0  0  0
   35.3804   51.7588  -66.8609 N   0  0  0  0  0  0  0  0  0  0  0  0
   36.5677   52.6054  -66.6723 C   0  0  0  0  0  0  0  0  0  0  0  0
   34.2327   51.6962  -65.7118 S   0  0  0  0  0  0  0  0  0  0  0  0
   33.0473   51.1935  -66.3318 O   0  0  0  0  0  0  0  0  0  0  0  0
   34.2077   52.9841  -65.0828 O   0  0  0  0  0  0  0  0  0  0  0  0
   34.7498   50.4763  -64.5116 C   0  0  0  0  0  0  0  0  0  0  0  0
   35.9878   49.8614  -64.7067 C   0  0  0  0  0  0  0  0  0  0  0  0
   36.4583   48.9071  -63.8050 C   0  0  0  0  0  0  0  0  0  0  0  0
   37.6790   48.1882  -63.9175 N   0  0  0  0  0  0  0  0  0  0  0  0
   38.6708   48.2655  -64.8454 C   0  0  0  0  0  0  0  0  0  0  0  0
   38.6734   49.0538  -65.7849 O   0  0  0  0  0  0  0  0  0  0  0  0
   39.7918   47.2448  -64.6335 C   0  0  0  0  0  0  0  0  0  0  0  0
   41.1446   47.3285  -65.1886 N   0  0  0  0  0  0  0  0  0  0  0  0
   42.0465   48.3526  -64.9373 C   0  0  0  0  0  0  0  0  0  0  0  0
   41.8215   49.3658  -64.2995 O   0  0  0  0  0  0  0  0  0  0  0  0
   43.2059   48.0317  -65.5659 N   0  0  0  0  0  0  0  0  0  0  0  0
   43.1894   46.7252  -66.2275 C   0  0  0  0  0  0  0  0  0  0  0  0
   44.1377   45.7283  -65.5247 C   0  0  0  0  0  0  0  0  0  0  0  0
   45.5322   45.6660  -66.1237 C   0  0  0  0  0  0  0  0  0  0  0  0
   45.4237   45.1996  -67.5546 C   0  0  0  0  0  0  0  0  0  0  0  0
   44.5213   46.1086  -68.3396 C   0  0  0  0  0  0  0  0  0  0  0  0
   44.7316   46.2527  -69.7094 C   0  0  0  0  0  0  0  0  0  0  0  0
   43.9294   47.0819  -70.4697 C   0  0  0  0  0  0  0  0  0  0  0  0
   42.9084   47.7825  -69.8753 C   0  0  0  0  0  0  0  0  0  0  0  0
   42.6797   47.6581  -68.5134 C   0  0  0  0  0  0  0  0  0  0  0  0
   43.4693   46.8168  -67.7302 C   0  0  0  0  0  0  0  0  0  0  0  0
   41.7190   46.3278  -65.9434 C   0  0  0  0  0  0  0  0  0  0  0  0
   41.1784   45.2857  -66.2682 O   0  0  0  0  0  0  0  0  0  0  0  0
   35.6684   48.5349  -62.7241 C   0  0  0  0  0  0  0  0  0  0  0  0
   34.4417   49.1322  -62.5162 C   0  0  0  0  0  0  0  0  0  0  0  0
   33.9753   50.0948  -63.3947 C   0  0  0  0  0  0  0  0  0  0  0  0
   32.4075   50.7809  -63.0801 Cl  0  0  0  0  0  0  0  0  0  0  0  0
  7  4  1  0
  8  7  2  0
  7 32  1  0
 11 13  1  0
 13 14  1  0
  2  1  1  0
  2  3  1  0
  4  2  1  0
  4  5  2  0
  4  6  2  0
  9  8  1  0
 10  9  1  0
  9 30  2  0
 10 11  1  0
 11 12  2  0
 14 15  1  0
 14 28  1  0
 15 16  2  0
 15 17  1  0
 17 18  1  0
 18 19  1  0
 18 27  1  0
 18 28  1  0
 19 20  1  0
 20 21  1  0
 21 22  1  0
 22 23  2  0
 22 27  1  0
 23 24  1  0
 24 25  2  0
 25 26  1  0
 26 27  2  0
 28 29  2  0
 30 31  1  0
 31 32  2  0
 32 33  1  0
M  END
$$$$
