
     RDKit          3D

 23 26  0  0  0  0  0  0  0  0999 V2000
   -6.9451   16.6817    1.0360 C   0  0  0  0  0  0  0  0  0  0  0  0
   -7.0460   15.2229    1.3372 C   0  0  0  0  0  0  0  0  0  0  0  0
   -6.2495   14.4489    0.5578 N   0  0  0  0  0  0  0  0  0  0  0  0
   -6.3883   13.1988    0.8584 C   0  0  0  0  0  0  0  0  0  0  0  0
   -6.2254   12.2375   -0.0545 N   0  0  0  0  0  0  0  0  0  0  0  0
   -5.8081   10.8668    0.1577 C   0  0  0  0  0  0  0  0  0  0  0  0
   -6.8494   10.1044   -0.5981 C   0  0  0  0  0  0  0  0  0  0  0  0
   -7.1977   10.4081   -1.9156 C   0  0  0  0  0  0  0  0  0  0  0  0
   -8.4031    9.9694   -2.4482 C   0  0  0  0  0  0  0  0  0  0  0  0
   -9.3210    9.3077   -1.6459 C   0  0  0  0  0  0  0  0  0  0  0  0
   -9.0126    9.1456   -0.3059 C   0  0  0  0  0  0  0  0  0  0  0  0
   -7.8581    9.6482    0.2417 C   0  0  0  0  0  0  0  0  0  0  0  0
   -7.7676    9.3124    1.5782 O   0  0  0  0  0  0  0  0  0  0  0  0
   -9.0135    8.6825    1.8920 C   0  0  0  0  0  0  0  0  0  0  0  0
   -9.7762    8.5633    0.6851 O   0  0  0  0  0  0  0  0  0  0  0  0
   -7.1543   12.9102    2.3969 S   0  0  0  0  0  0  0  0  0  0  0  0
   -7.4852   14.6196    2.4948 C   0  0  0  0  0  0  0  0  0  0  0  0
   -7.7765   15.5227    3.4771 C   0  0  0  0  0  0  0  0  0  0  0  0
   -7.8802   16.9501    3.2730 C   0  0  0  0  0  0  0  0  0  0  0  0
   -8.4821   17.4274    4.3852 C   0  0  0  0  0  0  0  0  0  0  0  0
   -8.7302   16.3604    5.1732 N   0  0  0  0  0  0  0  0  0  0  0  0
   -9.3388   16.3624    6.4937 C   0  0  0  0  0  0  0  0  0  0  0  0
   -8.4693   15.1781    4.5698 N   0  0  0  0  0  0  0  0  0  0  0  0
  2 17  2  0
  3  2  1  0
  2  1  1  0
  4 16  1  0
  4  3  2  0
  5  4  1  0
  6  5  1  0
  7  6  1  0
 11 10  1  0
 10  9  2  0
 12 11  2  0
 11 15  1  0
 15 14  1  0
 14 13  1  0
  7 12  1  0
 12 13  1  0
 17 18  1  0
 16 17  1  0
 18 19  1  0
 18 23  2  0
 19 20  2  0
 20 21  1  0
 21 22  1  0
 23 21  1  0
  7  8  2  0
  8  9  1  0
M  END
$$$$
