
     RDKit          3D

 14 13  0  0  0  0  0  0  0  0999 V2000
    3.4667    4.3270  -18.0743 C   0  0  0  0  0  0  0  0  0  0  0  0
    2.7588    3.4219  -19.0930 C   0  0  0  0  0  0  0  0  0  0  0  0
    2.6833    2.1097  -18.6152 O   0  0  0  0  0  0  0  0  0  0  0  0
    1.4591    3.8634  -19.3275 O   0  0  0  0  0  0  0  0  0  0  0  0
    3.4900    3.3776  -20.4501 C   0  0  0  0  0  0  0  0  0  0  0  0
    2.7151    2.7137  -21.5958 C   0  0  0  0  0  0  0  0  0  0  0  0
    3.6244    2.0783  -22.6682 C   0  0  0  0  0  0  0  0  0  0  0  0
    2.9421    1.9134  -24.0353 C   0  0  0  0  0  0  0  0  0  0  0  0
    3.5329    0.7769  -24.9098 C   0  0  0  0  0  0  0  0  0  0  0  0
    3.3675    1.0442  -26.3639 N   0  0  0  0  0  0  0  0  0  0  0  0
    2.0333    0.6857  -26.9173 C   0  0  0  0  0  0  0  0  0  0  0  0
    1.8372    1.2382  -28.3489 C   0  0  0  0  0  0  0  0  0  0  0  0
    0.4049    1.7996  -28.5576 C   0  0  0  0  0  0  0  0  0  0  0  0
    0.0627    1.8299  -29.9871 N   0  0  0  0  0  0  0  0  0  0  0  0
 11 12  1  0
 10 11  1  0
 12 13  1  0
 13 14  1  0
  2  1  1  0
  5  2  1  0
  2  3  1  0
  2  4  1  0
  6  5  1  0
  7  6  1  0
  8  7  1  0
  9  8  1  0
  9 10  1  0
M  CHG  2  10   1  14   1
M  END
$$$$
