
     RDKit          3D

 14 13  0  0  0  0  0  0  0  0999 V2000
   -1.1704    3.3819  -27.9659 N   0  0  0  0  0  4  0  0  0  0  0  0
    0.1415    2.8789  -28.2743 C   0  0  0  0  0  0  0  0  0  0  0  0
    1.0689    2.7356  -27.0589 C   0  0  0  0  0  0  0  0  0  0  0  0
    1.8588    1.4387  -27.1664 C   0  0  0  0  0  0  0  0  0  0  0  0
    3.2155    1.3585  -26.5481 N   0  0  0  0  0  4  0  0  0  0  0  0
    3.4555    0.9248  -25.1741 C   0  0  0  0  0  0  0  0  0  0  0  0
    2.8643    1.7669  -24.0509 C   0  0  0  0  0  0  0  0  0  0  0  0
    3.7429    1.9070  -22.8162 C   0  0  0  0  0  0  0  0  0  0  0  0
    2.9499    2.3411  -21.5861 C   0  0  0  0  0  0  0  0  0  0  0  0
    3.6056    3.3343  -20.6563 C   0  0  0  0  0  0  0  0  0  0  0  0
    2.7589    3.5893  -19.3529 B   0  0  0  0  0  4  0  0  0  0  0  0
    3.1295    4.8596  -18.7299 O   0  0  0  0  0  3  0  0  0  0  0  0
    1.3206    3.6519  -19.6780 O   0  0  0  0  0  3  0  0  0  0  0  0
    2.9682    2.5087  -18.3798 O   0  0  0  0  0  3  0  0  0  0  0  0
 10 11  1  0
  9 10  1  0
 11 12  1  0
 11 14  1  0
  3  2  1  0
  2  1  1  0
  4  3  1  0
  5  4  1  0
  7  6  1  0
  6  5  1  0
  8  7  1  0
  8  9  1  0
 11 13  1  0
M  CHG  6   1   1   5   1  11  -1  12   1  13   1  14   1
M  END
$$$$
