
     RDKit          3D

 14 13  0  0  0  0  0  0  0  0999 V2000
   -2.6777   -0.9032  -27.9295 N   0  0  0  0  0  0  0  0  0  0  0  0
   -1.4458   -1.4682  -28.5371 C   0  0  0  0  0  0  0  0  0  0  0  0
   -0.3108   -1.6689  -27.4874 C   0  0  0  0  0  0  0  0  0  0  0  0
    0.8282   -0.6051  -27.5900 C   0  0  0  0  0  0  0  0  0  0  0  0
    1.4168   -0.3025  -26.2403 N   0  0  0  0  0  0  0  0  0  0  0  0
    2.3487    0.8768  -26.2812 C   0  0  0  0  0  0  0  0  0  0  0  0
    3.3098    0.8989  -25.0409 C   0  0  0  0  0  0  0  0  0  0  0  0
    3.2565    2.2248  -24.2188 C   0  0  0  0  0  0  0  0  0  0  0  0
    3.1904    2.0321  -22.6643 C   0  0  0  0  0  0  0  0  0  0  0  0
    2.6779    3.2796  -21.8629 C   0  0  0  0  0  0  0  0  0  0  0  0
    2.1833    3.0424  -20.4276 C   0  0  0  0  0  0  0  0  0  0  0  0
    0.9911    3.3944  -20.1622 O   0  0  0  0  0  0  0  0  0  0  0  0
    2.9843    2.4561  -19.4294 N   0  0  0  0  0  0  0  0  0  0  0  0
    2.3932    2.2919  -18.1391 O   0  0  0  0  0  0  0  0  0  0  0  0
  3  2  1  0
  2  1  1  0
  4  3  1  0
  5  4  1  0
  6  7  1  0
  6  5  1  0
  7  8  1  0
  8  9  1  0
  9 10  1  0
 10 11  1  0
 11 13  1  0
 11 12  2  0
 13 14  1  0
M  CHG  2   1   1   5   1
M  END
$$$$
