
     RDKit          3D

 11 10  0  0  0  0  0  0  0  0999 V2000
    0.0362    1.8364  -28.9529 N   0  0  0  0  0  0  0  0  0  0  0  0
    1.3639    1.8861  -28.3474 C   0  0  0  0  0  0  0  0  0  0  0  0
    1.5867    0.9398  -27.1707 C   0  0  0  0  0  0  0  0  0  0  0  0
    2.9790    1.1276  -26.6030 C   0  0  0  0  0  0  0  0  0  0  0  0
    2.9496    0.8475  -25.1704 N   0  0  0  0  0  0  0  0  0  0  0  0
    3.6321    1.9038  -24.4089 C   0  0  0  0  0  0  0  0  0  0  0  0
    3.4249    1.6662  -22.9334 C   0  0  0  0  0  0  0  0  0  0  0  0
    2.6496    2.8081  -22.3850 C   0  0  0  0  0  0  0  0  0  0  0  0
    2.4181    2.6023  -20.9447 C   0  0  0  0  0  0  0  0  0  0  0  0
    2.8882    3.7842  -20.1950 C   0  0  0  0  0  0  0  0  0  0  0  0
    2.3900    3.4632  -18.5157 S   0  0  0  0  0  0  0  0  0  0  0  0
  3  2  1  0
  2  1  1  0
  4  3  1  0
  5  4  1  0
  6  7  1  0
  6  5  1  0
  7  8  1  0
  8  9  1  0
  9 10  1  0
 10 11  1  0
M  CHG  2   1   1   5   1
M  END
$$$$
